@<TRIPOS>MOLECULE
CHEMBL1081852
   48    51     0     0     0
SMALL
USER_CHARGES

@<TRIPOS>ATOM
      1 C1         -0.0167    1.3781    0.0096 C.ar      1 <0>        -0.1413
      2 C2          1.1709    2.0855    0.0021 C.ar      1 <0>        -0.0582
      3 C3          2.3773    1.4107   -0.0130 C.ar      1 <0>        -0.1628
      4 C4          2.3960    0.0285   -0.0201 C.ar      1 <0>        -0.0559
      5 C5          1.2085   -0.6789   -0.0117 C.ar      1 <0>        -0.1023
      6 C6          0.0021   -0.0041    0.0020 C.ar      1 <0>        -0.0987
      7 C7         -1.2926   -0.7753    0.0107 C.3       1 <0>        -0.0994
      8 C8         -1.7450   -1.0285   -1.4288 C.3       1 <0>         0.0243
      9 H1         -0.9463   -1.5264   -1.9784 H         1 <0>         0.1551
     10 C9         -2.9907   -1.9168   -1.4231 C.3       1 <0>         0.1137
     11 N1         -3.4936   -2.0615   -2.7914 N.pl3     1 <0>        -0.7059
     12 C10        -4.6212   -2.8264   -3.0373 C.2       1 <0>         0.2808
     13 N2         -5.3661   -3.4847   -2.1731 N.2       1 <0>        -0.5621
     14 C11        -6.4188   -4.1742   -2.5639 C.2       1 <0>         0.0903
     15 C12        -6.6944   -4.1697   -3.9048 C.2       1 <0>        -0.1738
     16 S1         -5.3736   -3.1324   -4.5112 S.3       1 <0>         0.1384
     17 C13        -7.7868   -4.8352   -4.6454 C.ar      1 <0>         0.0128
     18 C14        -8.7313   -5.6018   -3.9578 C.ar      1 <0>        -0.0770
     19 C15        -9.7504   -6.2228   -4.6476 C.ar      1 <0>        -0.0888
     20 C16        -9.8394   -6.0867   -6.0256 C.ar      1 <0>         0.0787
     21 C17        -8.8999   -5.3223   -6.7194 C.ar      1 <0>         0.0470
     22 C18        -7.8782   -4.6934   -6.0298 C.ar      1 <0>        -0.0728
     23 O1         -9.2343   -5.3682   -8.0327 O.3       1 <0>        -0.2339
     24 C19       -10.3338   -6.1235   -8.1817 C.2       1 <0>         0.6400
     25 O2        -10.8847   -6.3602   -9.2396 O.2       1 <0>        -0.4733
     26 N3        -10.7324   -6.5797   -6.9779 N.am      1 <0>        -0.6461
     27 H2        -11.4995   -7.1476   -6.8050 H         1 <0>         0.4478
     28 N4         -2.0599    0.2523   -2.0756 N.4       1 <0>        -0.6402
     29 C20         3.6720    2.1819   -0.0222 C.3       1 <0>         0.5036
     30 F1          4.0857    2.4144    1.2938 F         1 <0>        -0.1688
     31 F2          4.6506    1.4423   -0.6949 F         1 <0>        -0.1714
     32 F3          3.4816    3.4050   -0.6742 F         1 <0>        -0.1728
     33 H3         -0.9591    1.9053    0.0259 H         1 <0>         0.1371
     34 H4          1.1563    3.1654    0.0076 H         1 <0>         0.1471
     35 H5          3.3385   -0.4987   -0.0326 H         1 <0>         0.1478
     36 H6          1.2231   -1.7588   -0.0179 H         1 <0>         0.1451
     37 H7         -1.1443   -1.7285    0.5180 H         1 <0>         0.1327
     38 H8         -2.0551   -0.1993    0.5352 H         1 <0>         0.1103
     39 H9         -2.7351   -2.8985   -1.0242 H         1 <0>         0.1173
     40 H10        -3.7596   -1.4603   -0.7997 H         1 <0>         0.1002
     41 H11        -3.0366   -1.6214   -3.5252 H         1 <0>         0.4107
     42 H12        -7.0337   -4.7165   -1.8610 H         1 <0>         0.1825
     43 H13        -8.6626   -5.7081   -2.8852 H         1 <0>         0.1464
     44 H14       -10.4796   -6.8156   -4.1154 H         1 <0>         0.1475
     45 H15        -7.1515   -4.0981   -6.5625 H         1 <0>         0.1403
     46 H16        -1.2384    0.8381   -2.0794 H         1 <0>         0.4380
     47 H17        -2.3583    0.0853   -3.0249 H         1 <0>         0.4323
     48 H18        -2.7994    0.7132   -1.5668 H         1 <0>         0.4377
@<TRIPOS>BOND
     1    1    6 ar
     2    1    2 ar
     3    1   33 1
     4    2    3 ar
     5    2   34 1
     6    3    4 ar
     7    3   29 1
     8    4    5 ar
     9    4   35 1
    10    5    6 ar
    11    5   36 1
    12    6    7 1
    13    7    8 1
    14    7   37 1
    15    7   38 1
    16    8    9 1
    17    8   10 1
    18    8   28 1
    19   10   11 1
    20   10   39 1
    21   10   40 1
    22   11   12 1
    23   11   41 1
    24   12   16 1
    25   12   13 2
    26   13   14 1
    27   14   15 2
    28   14   42 1
    29   15   16 1
    30   15   17 1
    31   17   22 ar
    32   17   18 ar
    33   18   19 ar
    34   18   43 1
    35   19   20 ar
    36   19   44 1
    37   20   26 1
    38   20   21 ar
    39   21   22 ar
    40   21   23 1
    41   22   45 1
    42   23   24 1
    43   24   25 2
    44   24   26 am
    45   26   27 1
    46   28   46 1
    47   28   47 1
    48   28   48 1
    49   29   30 1
    50   29   31 1
    51   29   32 1
@<TRIPOS>MOLECULE
CHEMBL271952
   36    39     0     0     0
SMALL
USER_CHARGES

@<TRIPOS>ATOM
      1 C1         -0.0168    1.3858    0.0097 C.ar      1 <0>        -0.1740
      2 C2          1.1705    2.0906    0.0021 C.ar      1 <0>         0.0166
      3 C3          2.3775    1.4155   -0.0135 C.ar      1 <0>        -0.7009
      4 C4          2.4002    0.0326   -0.0211 C.ar      1 <0>         0.0129
      5 C5          1.2171   -0.6791   -0.0132 C.ar      1 <0>        -0.1571
      6 C6          0.0021   -0.0041    0.0020 C.ar      1 <0>         0.2253
      7 N1         -1.1954   -0.7197    0.0101 N.pl3     1 <0>        -0.4839
      8 N2         -1.1760   -2.0095    0.0030 N.2       1 <0>        -0.1003
      9 C7         -2.3056   -2.6845    0.0106 C.2       1 <0>        -0.0115
     10 C8         -2.4765   -4.1508    0.0104 C.ar      1 <0>        -0.0374
     11 C9         -3.8452   -4.3947    0.0210 C.ar      1 <0>         0.1690
     12 C10        -4.3149   -5.7185    0.0238 C.ar      1 <0>        -0.0995
     13 C11        -3.4720   -6.7789    0.0164 C.ar      1 <0>        -0.0192
     14 C12        -2.0762   -6.5968    0.0060 C.ar      1 <0>         0.0175
     15 C13        -1.5471   -5.2726    0.0014 C.ar      1 <0>         0.0839
     16 N3         -0.2341   -5.4154   -0.0098 N.2       1 <0>        -0.2638
     17 N4          0.0453   -6.6727   -0.0140 N.pl3     1 <0>        -0.1939
     18 N5         -1.0202   -7.3962   -0.0031 N.2       1 <0>        -0.2596
     19 H1          0.9468   -7.0306   -0.0226 H         1 <0>         0.4771
     20 N6         -4.5262   -3.1815    0.0276 N.am      1 <0>        -0.6354
     21 C14        -3.6752   -2.1415    0.0276 C.2       1 <0>         0.5464
     22 O1         -3.9808   -0.9629    0.0371 O.2       1 <0>        -0.5150
     23 S1          3.8899    2.3193   -0.0243 S.o2      1 <0>         2.7048
     24 O2          4.8717    1.4615   -0.5894 O.2       1 <0>        -0.9626
     25 O3          3.5942    3.5994   -0.5657 O.2       1 <0>        -0.9631
     26 N7          4.3262    2.5626    1.5546 N.pl3     1 <0>        -1.2504
     27 H2         -0.9588    1.9137    0.0260 H         1 <0>         0.1425
     28 H3          1.1567    3.1705    0.0080 H         1 <0>         0.1526
     29 H4          3.3446   -0.4912   -0.0337 H         1 <0>         0.1512
     30 H5          1.2356   -1.7589   -0.0195 H         1 <0>         0.1522
     31 H6         -2.0426   -0.2474    0.0210 H         1 <0>         0.4126
     32 H7         -5.3801   -5.8963    0.0324 H         1 <0>         0.1481
     33 H8         -3.8774   -7.7799    0.0189 H         1 <0>         0.1503
     34 H9         -5.4925   -3.0971    0.0349 H         1 <0>         0.4262
     35 H10         3.7677    2.2209    2.2703 H         1 <0>         0.4169
     36 H11         5.1403    3.0467    1.7638 H         1 <0>         0.4214
@<TRIPOS>BOND
     1    1    6 ar
     2    1    2 ar
     3    1   27 1
     4    2    3 ar
     5    2   28 1
     6    3    4 ar
     7    3   23 1
     8    4    5 ar
     9    4   29 1
    10    5    6 ar
    11    5   30 1
    12    6    7 1
    13    7    8 1
    14    7   31 1
    15    8    9 2
    16    9   21 1
    17    9   10 1
    18   10   15 ar
    19   10   11 ar
    20   11   12 ar
    21   11   20 1
    22   12   13 ar
    23   12   32 1
    24   13   14 ar
    25   13   33 1
    26   14   15 ar
    27   14   18 2
    28   15   16 2
    29   16   17 1
    30   17   19 1
    31   17   18 1
    32   20   21 am
    33   20   34 1
    34   21   22 2
    35   23   24 2
    36   23   25 2
    37   23   26 1
    38   26   35 1
    39   26   36 1
@<TRIPOS>MOLECULE
CHEMBL271952
   35    38     0     0     0
SMALL
USER_CHARGES

@<TRIPOS>ATOM
      1 C1         -0.0168    1.3858    0.0097 C.ar      1 <0>        -0.1878
      2 C2          1.1705    2.0906    0.0021 C.ar      1 <0>         0.0151
      3 C3          2.3775    1.4155   -0.0135 C.ar      1 <0>        -0.7136
      4 C4          2.4002    0.0326   -0.0211 C.ar      1 <0>         0.0150
      5 C5          1.2171   -0.6791   -0.0132 C.ar      1 <0>        -0.1610
      6 C6          0.0021   -0.0041    0.0020 C.ar      1 <0>         0.2450
      7 N1         -1.1954   -0.7197    0.0101 N.pl3     1 <0>        -0.5025
      8 N2         -1.1760   -2.0095    0.0030 N.2       1 <0>        -0.1244
      9 C7         -2.3056   -2.6845    0.0106 C.2       1 <0>         0.0234
     10 C8         -2.4765   -4.1508    0.0104 C.ar      1 <0>        -0.0408
     11 C9         -3.8452   -4.3947    0.0210 C.ar      1 <0>         0.1161
     12 C10        -4.3149   -5.7185    0.0238 C.ar      1 <0>        -0.1601
     13 C11        -3.4720   -6.7789    0.0164 C.ar      1 <0>        -0.0082
     14 C12        -2.0762   -6.5968    0.0060 C.ar      1 <0>        -0.0617
     15 C13        -1.5471   -5.2726    0.0014 C.ar      1 <0>         0.0211
     16 N3         -0.2341   -5.4154   -0.0098 N.2       1 <0>        -0.3555
     17 N4          0.0453   -6.6727   -0.0140 N.2       1 <0>        -0.1298
     18 N5         -1.0202   -7.3962   -0.0031 N.2       1 <0>        -0.3550
     19 N6         -4.5262   -3.1815    0.0276 N.am      1 <0>        -0.6349
     20 C14        -3.6752   -2.1415    0.0276 C.2       1 <0>         0.5411
     21 O1         -3.9808   -0.9629    0.0371 O.2       1 <0>        -0.5422
     22 S1          3.8899    2.3193   -0.0243 S.o2      1 <0>         2.7062
     23 O2          4.8717    1.4615   -0.5894 O.2       1 <0>        -0.9659
     24 O3          3.5942    3.5994   -0.5657 O.2       1 <0>        -0.9704
     25 N7          4.3262    2.5626    1.5546 N.pl3     1 <0>        -1.2518
     26 H1         -0.9588    1.9137    0.0260 H         1 <0>         0.1376
     27 H2          1.1567    3.1705    0.0080 H         1 <0>         0.1464
     28 H3          3.3446   -0.4912   -0.0337 H         1 <0>         0.1485
     29 H4          1.2356   -1.7589   -0.0195 H         1 <0>         0.1569
     30 H5         -2.0426   -0.2474    0.0210 H         1 <0>         0.4057
     31 H6         -5.3801   -5.8963    0.0324 H         1 <0>         0.1178
     32 H7         -3.8774   -7.7799    0.0189 H         1 <0>         0.1197
     33 H8         -5.4925   -3.0971    0.0349 H         1 <0>         0.4144
     34 H9          3.7677    2.2209    2.2703 H         1 <0>         0.4172
     35 H10         5.1403    3.0467    1.7638 H         1 <0>         0.4183
@<TRIPOS>BOND
     1    1    6 ar
     2    1    2 ar
     3    1   26 1
     4    2    3 ar
     5    2   27 1
     6    3    4 ar
     7    3   22 1
     8    4    5 ar
     9    4   28 1
    10    5    6 ar
    11    5   29 1
    12    6    7 1
    13    7    8 1
    14    7   30 1
    15    8    9 2
    16    9   20 1
    17    9   10 1
    18   10   15 ar
    19   10   11 ar
    20   11   12 ar
    21   11   19 1
    22   12   13 ar
    23   12   31 1
    24   13   14 ar
    25   13   32 1
    26   14   15 ar
    27   14   18 2
    28   15   16 2
    29   16   17 1
    30   17   18 1
    31   19   20 am
    32   19   33 1
    33   20   21 2
    34   22   23 2
    35   22   24 2
    36   22   25 1
    37   25   34 1
    38   25   35 1
@<TRIPOS>MOLECULE
CHEMBL271952
   36    39     0     0     0
SMALL
USER_CHARGES

@<TRIPOS>ATOM
      1 C1         -0.0168    1.3857    0.0097 C.ar      1 <0>        -0.1730
      2 C2          1.1705    2.0906    0.0021 C.ar      1 <0>         0.0156
      3 C3          2.3775    1.4154   -0.0130 C.ar      1 <0>        -0.7014
      4 C4          2.4002    0.0326   -0.0207 C.ar      1 <0>         0.0161
      5 C5          1.2170   -0.6791   -0.0132 C.ar      1 <0>        -0.1610
      6 C6          0.0021   -0.0041    0.0020 C.ar      1 <0>         0.2240
      7 N1         -1.1955   -0.7197    0.0101 N.pl3     1 <0>        -0.4839
      8 N2         -1.1762   -2.0096    0.0030 N.2       1 <0>        -0.1256
      9 C7         -2.3047   -2.6840    0.0105 C.2       1 <0>        -0.0048
     10 C8         -2.4757   -4.1541    0.0104 C.ar      1 <0>        -0.0974
     11 C9         -3.8515   -4.3931    0.0207 C.ar      1 <0>         0.2097
     12 C10        -4.3184   -5.7102    0.0234 C.ar      1 <0>        -0.1398
     13 C11        -3.4517   -6.7606    0.0161 C.ar      1 <0>         0.0156
     14 C12        -2.0656   -6.5426    0.0061 C.ar      1 <0>        -0.0340
     15 C13        -1.5771   -5.2258    0.0024 C.ar      1 <0>         0.1563
     16 N3         -0.2081   -5.3265   -0.0084 N.pl3     1 <0>        -0.4887
     17 N4          0.0911   -6.6969   -0.0122 N.2       1 <0>         0.0001
     18 N5         -1.0035   -7.3727   -0.0024 N.2       1 <0>        -0.2019
     19 H1          0.4276   -4.5939   -0.0131 H         1 <0>         0.4504
     20 N6         -4.5278   -3.1780    0.0271 N.am      1 <0>        -0.6362
     21 C14        -3.6736   -2.1408    0.0276 C.2       1 <0>         0.5492
     22 O1         -3.9773   -0.9617    0.0377 O.2       1 <0>        -0.5088
     23 S1          3.8900    2.3193   -0.0232 S.o2      1 <0>         2.7048
     24 O2          4.8720    1.4614   -0.5880 O.2       1 <0>        -0.9609
     25 O3          3.5945    3.5994   -0.5648 O.2       1 <0>        -0.9593
     26 N7          4.3256    2.5625    1.5558 N.pl3     1 <0>        -1.2480
     27 H2         -0.9588    1.9136    0.0260 H         1 <0>         0.1429
     28 H3          1.1567    3.1705    0.0077 H         1 <0>         0.1532
     29 H4          3.3446   -0.4912   -0.0329 H         1 <0>         0.1517
     30 H5          1.2355   -1.7589   -0.0195 H         1 <0>         0.1450
     31 H6         -2.0427   -0.2474    0.0210 H         1 <0>         0.4146
     32 H7         -5.3820   -5.8979    0.0317 H         1 <0>         0.1510
     33 H8         -3.8346   -7.7704    0.0183 H         1 <0>         0.1557
     34 H9         -5.4938   -3.0904    0.0343 H         1 <0>         0.4287
     35 H10         5.2631    2.6308    1.7953 H         1 <0>         0.4227
     36 H11         3.6434    2.6367    2.2413 H         1 <0>         0.4172
@<TRIPOS>BOND
     1    1    6 ar
     2    1    2 ar
     3    1   27 1
     4    2    3 ar
     5    2   28 1
     6    3    4 ar
     7    3   23 1
     8    4    5 ar
     9    4   29 1
    10    5    6 ar
    11    5   30 1
    12    6    7 1
    13    7    8 1
    14    7   31 1
    15    8    9 2
    16    9   21 1
    17    9   10 1
    18   10   15 ar
    19   10   11 ar
    20   11   12 ar
    21   11   20 1
    22   12   13 ar
    23   12   32 1
    24   13   14 ar
    25   13   33 1
    26   14   15 ar
    27   14   18 1
    28   15   16 1
    29   16   19 1
    30   16   17 1
    31   17   18 2
    32   20   21 am
    33   20   34 1
    34   21   22 2
    35   23   24 2
    36   23   25 2
    37   23   26 1
    38   26   35 1
    39   26   36 1
@<TRIPOS>MOLECULE
CHEMBL271952
   36    39     0     0     0
SMALL
USER_CHARGES

@<TRIPOS>ATOM
      1 C1         -0.0168    1.3858    0.0097 C.ar      1 <0>        -0.1721
      2 C2          1.1705    2.0906    0.0021 C.ar      1 <0>         0.0119
      3 C3          2.3775    1.4155   -0.0130 C.ar      1 <0>        -0.7005
      4 C4          2.4002    0.0326   -0.0211 C.ar      1 <0>         0.0147
      5 C5          1.2170   -0.6791   -0.0137 C.ar      1 <0>        -0.1545
      6 C6          0.0021   -0.0041    0.0020 C.ar      1 <0>         0.2208
      7 N1         -1.1955   -0.7197    0.0101 N.pl3     1 <0>        -0.4807
      8 N2         -1.1761   -2.0095    0.0030 N.2       1 <0>        -0.0879
      9 C7         -2.3052   -2.6842    0.0106 C.2       1 <0>        -0.0254
     10 C8         -2.4758   -4.1528    0.0103 C.ar      1 <0>         0.0014
     11 C9         -3.8488   -4.3939    0.0201 C.ar      1 <0>         0.1355
     12 C10        -4.3166   -5.7101    0.0218 C.ar      1 <0>        -0.0703
     13 C11        -3.4369   -6.7667    0.0140 C.ar      1 <0>        -0.0811
     14 C12        -2.0632   -6.5420    0.0041 C.ar      1 <0>         0.0770
     15 C13        -1.5656   -5.2285    0.0026 C.ar      1 <0>         0.0423
     16 N3         -0.2218   -5.3000   -0.0068 N.2       1 <0>        -0.2060
     17 N4          0.1621   -6.5275   -0.0106 N.2       1 <0>         0.0074
     18 N5         -0.9620   -7.3666   -0.0051 N.pl3     1 <0>        -0.4910
     19 H1         -0.9628   -8.3366   -0.0059 H         1 <0>         0.4512
     20 N6         -4.5281   -3.1784    0.0263 N.am      1 <0>        -0.6370
     21 C14        -3.6742   -2.1408    0.0276 C.2       1 <0>         0.5481
     22 O1         -3.9780   -0.9617    0.0378 O.2       1 <0>        -0.5166
     23 S1          3.8900    2.3193   -0.0226 S.o2      1 <0>         2.7048
     24 O2          4.8721    1.4616   -0.5875 O.2       1 <0>        -0.9612
     25 O3          3.5946    3.5996   -0.5638 O.2       1 <0>        -0.9607
     26 N7          4.3254    2.5620    1.5566 N.pl3     1 <0>        -1.2482
     27 H2         -0.9588    1.9136    0.0260 H         1 <0>         0.1421
     28 H3          1.1567    3.1705    0.0077 H         1 <0>         0.1520
     29 H4          3.3446   -0.4912   -0.0337 H         1 <0>         0.1517
     30 H5          1.2355   -1.7589   -0.0204 H         1 <0>         0.1543
     31 H6         -2.0427   -0.2474    0.0210 H         1 <0>         0.4130
     32 H7         -5.3798   -5.8997    0.0298 H         1 <0>         0.1511
     33 H8         -3.8145   -7.7785    0.0158 H         1 <0>         0.1487
     34 H9         -5.4942   -3.0918    0.0331 H         1 <0>         0.4258
     35 H10         5.2628    2.6301    1.7962 H         1 <0>         0.4221
     36 H11         3.6429    2.6359    2.2419 H         1 <0>         0.4172
@<TRIPOS>BOND
     1    1    6 ar
     2    1    2 ar
     3    1   27 1
     4    2    3 ar
     5    2   28 1
     6    3    4 ar
     7    3   23 1
     8    4    5 ar
     9    4   29 1
    10    5    6 ar
    11    5   30 1
    12    6    7 1
    13    7    8 1
    14    7   31 1
    15    8    9 2
    16    9   21 1
    17    9   10 1
    18   10   15 ar
    19   10   11 ar
    20   11   12 ar
    21   11   20 1
    22   12   13 ar
    23   12   32 1
    24   13   14 ar
    25   13   33 1
    26   14   18 1
    27   14   15 ar
    28   15   16 1
    29   16   17 2
    30   17   18 1
    31   18   19 1
    32   20   21 am
    33   20   34 1
    34   21   22 2
    35   23   24 2
    36   23   25 2
    37   23   26 1
    38   26   35 1
    39   26   36 1
@<TRIPOS>MOLECULE
CHEMBL1081853
   48    51     0     0     0
SMALL
USER_CHARGES

@<TRIPOS>ATOM
      1 C1         -0.0167    1.3781    0.0096 C.ar      1 <0>        -0.1413
      2 C2          1.1709    2.0855    0.0021 C.ar      1 <0>        -0.0582
      3 C3          2.3773    1.4107   -0.0130 C.ar      1 <0>        -0.1629
      4 C4          2.3960    0.0285   -0.0201 C.ar      1 <0>        -0.0559
      5 C5          1.2085   -0.6789   -0.0117 C.ar      1 <0>        -0.1023
      6 C6          0.0021   -0.0041    0.0020 C.ar      1 <0>        -0.0986
      7 C7         -1.2926   -0.7753    0.0107 C.3       1 <0>        -0.0995
      8 C8         -1.7450   -1.0285   -1.4288 C.3       1 <0>         0.0244
      9 H1         -0.9463   -1.5264   -1.9784 H         1 <0>         0.1551
     10 C9         -2.9907   -1.9168   -1.4231 C.3       1 <0>         0.1138
     11 N1         -3.4936   -2.0615   -2.7914 N.pl3     1 <0>        -0.7062
     12 C10        -4.6212   -2.8264   -3.0373 C.2       1 <0>         0.2795
     13 N2         -5.3661   -3.4847   -2.1731 N.2       1 <0>        -0.5613
     14 C11        -6.4190   -4.1740   -2.5639 C.2       1 <0>         0.0863
     15 C12        -6.6947   -4.1693   -3.9047 C.2       1 <0>        -0.1690
     16 S1         -5.3737   -3.1324   -4.5112 S.3       1 <0>         0.1362
     17 C13        -7.7874   -4.8345   -4.6453 C.ar      1 <0>        -0.0026
     18 C14        -8.7389   -5.6041   -3.9698 C.ar      1 <0>        -0.0614
     19 C15        -9.7571   -6.2253   -4.6465 C.ar      1 <0>        -0.1069
     20 C16        -9.8783   -6.1097   -6.0428 C.ar      1 <0>         0.1368
     21 C17        -8.9106   -5.3317   -6.6977 C.ar      1 <0>        -0.1257
     22 C18        -7.8908   -4.7005   -6.0326 C.ar      1 <0>        -0.0331
     23 S2         -9.3989   -5.4302   -8.4032 S.3       1 <0>        -0.0266
     24 C19       -10.8318   -6.4732   -8.1876 C.2       1 <0>         0.5412
     25 O1        -11.6015   -6.8945   -9.0312 O.2       1 <0>        -0.4334
     26 N3        -10.8467   -6.6762   -6.8558 N.am      1 <0>        -0.6549
     27 H2        -11.5427   -7.2250   -6.4619 H         1 <0>         0.4167
     28 N4         -2.0599    0.2523   -2.0756 N.4       1 <0>        -0.6402
     29 C20         3.6720    2.1819   -0.0222 C.3       1 <0>         0.5036
     30 F1          4.0857    2.4144    1.2938 F         1 <0>        -0.1689
     31 F2          4.6506    1.4423   -0.6949 F         1 <0>        -0.1714
     32 F3          3.4816    3.4050   -0.6742 F         1 <0>        -0.1728
     33 H3         -0.9591    1.9053    0.0259 H         1 <0>         0.1371
     34 H4          1.1563    3.1654    0.0076 H         1 <0>         0.1471
     35 H5          3.3385   -0.4987   -0.0326 H         1 <0>         0.1478
     36 H6          1.2231   -1.7588   -0.0179 H         1 <0>         0.1451
     37 H7         -1.1443   -1.7285    0.5180 H         1 <0>         0.1326
     38 H8         -2.0551   -0.1993    0.5352 H         1 <0>         0.1103
     39 H9         -2.7351   -2.8985   -1.0242 H         1 <0>         0.1170
     40 H10        -3.7596   -1.4603   -0.7997 H         1 <0>         0.0999
     41 H11        -3.0366   -1.6214   -3.5252 H         1 <0>         0.4105
     42 H12        -7.0339   -4.7163   -1.8610 H         1 <0>         0.1816
     43 H13        -8.6708   -5.7114   -2.8973 H         1 <0>         0.1423
     44 H14       -10.4778   -6.8136   -4.0979 H         1 <0>         0.1422
     45 H15        -7.1706   -4.1080   -6.5772 H         1 <0>         0.1379
     46 H16        -2.7994    0.7132   -1.5668 H         1 <0>         0.4377
     47 H17        -1.2384    0.8381   -2.0794 H         1 <0>         0.4380
     48 H18        -2.3583    0.0853   -3.0249 H         1 <0>         0.4323
@<TRIPOS>BOND
     1    1    6 ar
     2    1    2 ar
     3    1   33 1
     4    2    3 ar
     5    2   34 1
     6    3    4 ar
     7    3   29 1
     8    4    5 ar
     9    4   35 1
    10    5    6 ar
    11    5   36 1
    12    6    7 1
    13    7    8 1
    14    7   37 1
    15    7   38 1
    16    8    9 1
    17    8   10 1
    18    8   28 1
    19   10   11 1
    20   10   39 1
    21   10   40 1
    22   11   12 1
    23   11   41 1
    24   12   16 1
    25   12   13 2
    26   13   14 1
    27   14   15 2
    28   14   42 1
    29   15   16 1
    30   15   17 1
    31   17   22 ar
    32   17   18 ar
    33   18   19 ar
    34   18   43 1
    35   19   20 ar
    36   19   44 1
    37   20   26 1
    38   20   21 ar
    39   21   22 ar
    40   21   23 1
    41   22   45 1
    42   23   24 1
    43   24   25 2
    44   24   26 am
    45   26   27 1
    46   28   46 1
    47   28   47 1
    48   28   48 1
    49   29   30 1
    50   29   31 1
    51   29   32 1
@<TRIPOS>MOLECULE
CHEMBL1082016
   52    55     0     0     0
SMALL
USER_CHARGES

@<TRIPOS>ATOM
      1 C1         -0.0178    1.4608    0.0101 C.3       1 <0>         0.0948
      2 N1          0.0021   -0.0041    0.0020 N.am      1 <0>        -0.5416
      3 C2         -1.1166   -0.8347    0.0027 C.ar      1 <0>         0.1004
      4 C3         -2.4790   -0.5893    0.0107 C.ar      1 <0>        -0.0955
      5 C4         -3.3743   -1.6585    0.0094 C.ar      1 <0>         0.0066
      6 C5         -2.8942   -2.9710    0.0001 C.ar      1 <0>        -0.0873
      7 C6         -1.5372   -3.2114   -0.0074 C.ar      1 <0>        -0.0933
      8 C7         -0.6433   -2.1494   -0.0067 C.ar      1 <0>         0.1003
      9 N2          0.7485   -2.0752   -0.0127 N.am      1 <0>        -0.6411
     10 H1          1.3571   -2.8305   -0.0198 H         1 <0>         0.4392
     11 C8          1.1043   -0.7769   -0.0131 C.2       1 <0>         0.6820
     12 O1          2.2490   -0.3643   -0.0227 O.2       1 <0>        -0.5438
     13 C9         -4.8303   -1.4038    0.0184 C.2       1 <0>        -0.1625
     14 C10        -5.8723   -2.2915    0.0245 C.2       1 <0>         0.0814
     15 N3         -7.0866   -1.7799    0.0321 N.2       1 <0>        -0.5601
     16 C11        -7.2788   -0.4767    0.0337 C.2       1 <0>         0.2766
     17 S1         -5.7156    0.1467    0.0323 S.3       1 <0>         0.1291
     18 N4         -8.4787    0.2141    0.0409 N.pl3     1 <0>        -0.7070
     19 C12        -9.7465   -0.5199    0.0486 C.3       1 <0>         0.1143
     20 C13       -10.9106    0.4730    0.0555 C.3       1 <0>         0.0243
     21 H2        -10.8996    1.0392    0.9869 H         1 <0>         0.1549
     22 C14       -12.2319   -0.2894   -0.0622 C.3       1 <0>        -0.0995
     23 C15       -13.3820    0.6757    0.0679 C.ar      1 <0>        -0.0982
     24 C16       -13.9138    0.9533    1.3133 C.ar      1 <0>        -0.1026
     25 C17       -14.9687    1.8386    1.4326 C.ar      1 <0>        -0.0558
     26 C18       -15.4917    2.4465    0.3066 C.ar      1 <0>        -0.1631
     27 C19       -14.9593    2.1695   -0.9387 C.ar      1 <0>        -0.0579
     28 C20       -13.9015    1.2876   -1.0575 C.ar      1 <0>        -0.1414
     29 C21       -16.6424    3.4108    0.4367 C.3       1 <0>         0.5037
     30 F1        -16.1469    4.7062    0.6197 F         1 <0>        -0.1717
     31 F2        -17.4197    3.3687   -0.7258 F         1 <0>        -0.1713
     32 F3        -17.4290    3.0526    1.5368 F         1 <0>        -0.1703
     33 N5        -10.7744    1.3952   -1.0798 N.4       1 <0>        -0.6401
     34 H3          1.0048    1.8381    0.0023 H         1 <0>         0.0988
     35 H4         -0.5450    1.8219   -0.8730 H         1 <0>         0.0754
     36 H5         -0.5280    1.8123    0.9069 H         1 <0>         0.0759
     37 H6         -2.8471    0.4260    0.0182 H         1 <0>         0.1291
     38 H7         -3.5880   -3.7987   -0.0009 H         1 <0>         0.1400
     39 H8         -1.1690   -4.2266   -0.0139 H         1 <0>         0.1421
     40 H9         -5.7073   -3.3588    0.0228 H         1 <0>         0.1816
     41 H10        -8.4798    1.1841    0.0409 H         1 <0>         0.4099
     42 H11        -9.8089   -1.1466   -0.8411 H         1 <0>         0.0996
     43 H12        -9.7982   -1.1466    0.9389 H         1 <0>         0.1167
     44 H13       -12.2807   -0.7841   -1.0323 H         1 <0>         0.1103
     45 H14       -12.2925   -1.0358    0.7298 H         1 <0>         0.1327
     46 H15       -13.5052    0.4784    2.1930 H         1 <0>         0.1451
     47 H16       -15.3847    2.0549    2.4056 H         1 <0>         0.1478
     48 H17       -15.3681    2.6442   -1.8184 H         1 <0>         0.1470
     49 H18       -13.4831    1.0740   -2.0300 H         1 <0>         0.1369
     50 H19       -10.7846    0.8710   -1.9419 H         1 <0>         0.4377
     51 H20       -11.5421    2.0499   -1.0752 H         1 <0>         0.4378
     52 H21        -9.9031    1.8979   -1.0021 H         1 <0>         0.4322
@<TRIPOS>BOND
     1    1    2 1
     2    1   34 1
     3    1   35 1
     4    1   36 1
     5    2   11 am
     6    2    3 1
     7    3    8 ar
     8    3    4 ar
     9    4    5 ar
    10    4   37 1
    11    5    6 ar
    12    5   13 1
    13    6    7 ar
    14    6   38 1
    15    7    8 ar
    16    7   39 1
    17    8    9 1
    18    9   10 1
    19    9   11 am
    20   11   12 2
    21   13   17 1
    22   13   14 2
    23   14   15 1
    24   14   40 1
    25   15   16 2
    26   16   17 1
    27   16   18 1
    28   18   19 1
    29   18   41 1
    30   19   20 1
    31   19   42 1
    32   19   43 1
    33   20   21 1
    34   20   22 1
    35   20   33 1
    36   22   23 1
    37   22   44 1
    38   22   45 1
    39   23   28 ar
    40   23   24 ar
    41   24   25 ar
    42   24   46 1
    43   25   26 ar
    44   25   47 1
    45   26   27 ar
    46   26   29 1
    47   27   28 ar
    48   27   48 1
    49   28   49 1
    50   29   30 1
    51   29   31 1
    52   29   32 1
    53   33   50 1
    54   33   51 1
    55   33   52 1
@<TRIPOS>MOLECULE
CHEMBL78959
   35    37     0     0     0
SMALL
USER_CHARGES

@<TRIPOS>ATOM
      1 C1         -0.0187    1.5258    0.0104 C.3       1 <0>        -0.1520
      2 C2          0.0021   -0.0041    0.0020 C.3       1 <0>        -0.1212
      3 C3         -1.4333   -0.5336    0.0129 C.3       1 <0>        -0.1175
      4 C4         -1.4126   -2.0635    0.0045 C.3       1 <0>         0.0798
      5 O1         -2.7532   -2.5581    0.0146 O.3       1 <0>        -0.3191
      6 C5         -2.9123   -3.9021    0.0089 C.ar      1 <0>         0.2994
      7 C6         -3.0032   -4.6171   -1.1972 C.ar      1 <0>        -0.2835
      8 C7         -3.1672   -6.0084   -1.1523 C.ar      1 <0>         0.2346
      9 N1         -3.2374   -6.6523   -0.0117 N.ar      1 <0>        -0.5144
     10 C8         -3.1571   -6.0253    1.1601 C.ar      1 <0>         0.3559
     11 N2         -3.2020   -6.4564    2.4552 N.pl3     1 <0>        -0.4851
     12 N3         -3.0683   -5.3599    3.3122 N.2       1 <0>        -0.2342
     13 C9         -2.9419   -4.2643    2.6190 C.2       1 <0>         0.1122
     14 C10        -2.9861   -4.6286    1.2077 C.ar      1 <0>        -0.2712
     15 C11        -2.9278   -3.9148   -2.4897 C.2       1 <0>         0.5033
     16 O2         -2.7858   -2.7064   -2.5183 O.2       1 <0>        -0.4188
     17 C12        -3.0243   -4.6744   -3.7466 C.2       1 <0>        -0.0374
     18 N4         -3.1849   -5.9803   -3.9304 N.2       1 <0>        -0.4392
     19 C13        -3.2439   -6.4351   -5.1543 C.2       1 <0>         0.0041
     20 C14        -3.1408   -5.5723   -6.2019 C.2       1 <0>        -0.2536
     21 S1         -2.9645   -4.0859   -5.4307 S.3       1 <0>         0.2423
     22 H1          1.0039    1.9031    0.0027 H         1 <0>         0.0568
     23 H2         -0.5459    1.8868   -0.8726 H         1 <0>         0.0567
     24 H3         -0.5289    1.8773    0.9072 H         1 <0>         0.0561
     25 H4          0.5123   -0.3556   -0.8948 H         1 <0>         0.0645
     26 H5          0.5293   -0.3651    0.8851 H         1 <0>         0.0638
     27 H6         -1.9435   -0.1821    0.9097 H         1 <0>         0.0741
     28 H7         -1.9605   -0.1726   -0.8702 H         1 <0>         0.0798
     29 H8         -0.9024   -2.4150   -0.8923 H         1 <0>         0.0598
     30 H9         -0.8854   -2.4246    0.8875 H         1 <0>         0.0573
     31 H10        -3.2375   -6.5622   -2.0768 H         1 <0>         0.2081
     32 H11        -2.8226   -3.2675    3.0173 H         1 <0>         0.2066
     33 H12        -3.3736   -7.4922   -5.3338 H         1 <0>         0.1763
     34 H13        -3.1693   -5.7863   -7.2601 H         1 <0>         0.2065
     35 H14        -3.3101   -7.3785    2.7364 H         1 <0>         0.4493
@<TRIPOS>BOND
     1    1    2 1
     2    1   22 1
     3    1   23 1
     4    1   24 1
     5    2    3 1
     6    2   25 1
     7    2   26 1
     8    3    4 1
     9    3   27 1
    10    3   28 1
    11    4    5 1
    12    4   29 1
    13    4   30 1
    14    5    6 1
    15    6   14 ar
    16    6    7 ar
    17    7    8 ar
    18    7   15 1
    19    8    9 ar
    20    8   31 1
    21    9   10 ar
    22   10   14 ar
    23   10   11 1
    24   11   35 1
    25   11   12 1
    26   12   13 2
    27   13   32 1
    28   13   14 1
    29   15   16 2
    30   15   17 1
    31   17   21 1
    32   17   18 2
    33   18   19 1
    34   19   20 2
    35   19   33 1
    36   20   21 1
    37   20   34 1
@<TRIPOS>MOLECULE
CHEMBL78959
   35    37     0     0     0
SMALL
USER_CHARGES

@<TRIPOS>ATOM
      1 C1         -0.0187    1.5258    0.0104 C.3       1 <0>        -0.1521
      2 C2          0.0021   -0.0041    0.0020 C.3       1 <0>        -0.1213
      3 C3         -1.4333   -0.5336    0.0129 C.3       1 <0>        -0.1174
      4 C4         -1.4126   -2.0635    0.0045 C.3       1 <0>         0.0808
      5 O1         -2.7532   -2.5581    0.0146 O.3       1 <0>        -0.3226
      6 C5         -2.9121   -3.9003    0.0089 C.ar      1 <0>         0.3155
      7 C6         -3.0028   -4.6139   -1.1932 C.ar      1 <0>        -0.2889
      8 C7         -3.1676   -6.0112   -1.1712 C.ar      1 <0>         0.2382
      9 N1         -3.2421   -6.6901   -0.0591 N.ar      1 <0>        -0.4821
     10 C8         -3.1650   -6.0912    1.1441 C.ar      1 <0>         0.3012
     11 N2         -3.2098   -6.5254    2.3883 N.2       1 <0>        -0.2857
     12 N3         -3.0766   -5.4383    3.2586 N.pl3     1 <0>        -0.4082
     13 C9         -2.9462   -4.3054    2.5583 C.2       1 <0>         0.1455
     14 C10        -2.9865   -4.6326    1.2157 C.ar      1 <0>        -0.3043
     15 C11        -2.9264   -3.9029   -2.4777 C.2       1 <0>         0.5016
     16 O2         -2.7842   -2.6939   -2.4967 O.2       1 <0>        -0.4247
     17 C12        -3.0217   -4.6528   -3.7409 C.2       1 <0>        -0.0333
     18 N4         -3.1822   -5.9570   -3.9350 N.2       1 <0>        -0.4373
     19 C13        -3.2401   -6.4022   -5.1630 C.2       1 <0>         0.0044
     20 C14        -3.1360   -5.5314   -6.2033 C.2       1 <0>        -0.2543
     21 S1         -2.9603   -4.0512   -5.4203 S.3       1 <0>         0.2355
     22 H1          1.0039    1.9031    0.0027 H         1 <0>         0.0570
     23 H2         -0.5459    1.8868   -0.8726 H         1 <0>         0.0572
     24 H3         -0.5289    1.8773    0.9072 H         1 <0>         0.0555
     25 H4          0.5123   -0.3556   -0.8948 H         1 <0>         0.0653
     26 H5          0.5293   -0.3651    0.8851 H         1 <0>         0.0629
     27 H6         -1.9435   -0.1821    0.9097 H         1 <0>         0.0725
     28 H7         -1.9605   -0.1726   -0.8702 H         1 <0>         0.0808
     29 H8         -0.9024   -2.4150   -0.8923 H         1 <0>         0.0617
     30 H9         -0.8854   -2.4246    0.8875 H         1 <0>         0.0550
     31 H10        -3.2353   -6.5416   -2.1095 H         1 <0>         0.2060
     32 H11        -2.8267   -3.3135    2.9685 H         1 <0>         0.2000
     33 H12        -3.3697   -7.4578   -5.3510 H         1 <0>         0.1762
     34 H13        -3.1635   -5.7371   -7.2632 H         1 <0>         0.2059
     35 H14        -3.0785   -5.4970    4.2268 H         1 <0>         0.4535
@<TRIPOS>BOND
     1    1    2 1
     2    1   22 1
     3    1   23 1
     4    1   24 1
     5    2    3 1
     6    2   25 1
     7    2   26 1
     8    3    4 1
     9    3   27 1
    10    3   28 1
    11    4    5 1
    12    4   29 1
    13    4   30 1
    14    5    6 1
    15    6   14 ar
    16    6    7 ar
    17    7    8 ar
    18    7   15 1
    19    8    9 ar
    20    8   31 1
    21    9   10 ar
    22   10   14 ar
    23   10   11 2
    24   11   12 1
    25   12   13 1
    26   12   35 1
    27   13   14 2
    28   13   32 1
    29   15   16 2
    30   15   17 1
    31   17   21 1
    32   17   18 2
    33   18   19 1
    34   19   20 2
    35   19   33 1
    36   20   21 1
    37   20   34 1
@<TRIPOS>MOLECULE
CHEMBL137357
   55    58     0     0     0
SMALL
USER_CHARGES

@<TRIPOS>ATOM
      1 C1         -0.6010   -2.0239    2.4511 C.ar      1 <0>        -0.1368
      2 C2          0.0705   -1.8513    3.6433 C.ar      1 <0>        -0.0102
      3 C3          0.4940   -0.5908    4.0266 C.ar      1 <0>        -0.6762
      4 C4          0.2470    0.5049    3.2183 C.ar      1 <0>        -0.0164
      5 C5         -0.4235    0.3475    2.0234 C.ar      1 <0>        -0.1122
      6 C6         -0.8536   -0.9223    1.6297 C.ar      1 <0>         0.0527
      7 N1         -1.5186   -1.0860    0.4458 N.2       1 <0>        -0.1456
      8 N2         -1.0223   -1.8427   -0.4735 N.2       1 <0>        -0.0609
      9 C7          0.1122   -2.5336   -0.2387 C.2       1 <0>        -0.1094
     10 C8          0.3045   -3.9912   -0.3661 C.ar      1 <0>        -0.0653
     11 C9         -0.5287   -5.0406   -0.7321 C.ar      1 <0>         0.0084
     12 C10        -0.0250   -6.3398   -0.7519 C.ar      1 <0>        -0.1584
     13 C11         1.3110   -6.5768   -0.4043 C.ar      1 <0>        -0.0643
     14 C12         2.1291   -5.5457   -0.0449 C.ar      1 <0>        -0.1202
     15 C13         1.6442   -4.2401   -0.0190 C.ar      1 <0>         0.1337
     16 N3          2.2300   -3.0312    0.2970 N.pl3     1 <0>        -0.5745
     17 H1          3.1537   -2.9198    0.5713 H         1 <0>         0.4260
     18 C14         1.3331   -2.0164    0.1648 C.2       1 <0>         0.3025
     19 O1          1.5915   -0.7089    0.3943 O.3       1 <0>        -0.4524
     20 C15        -0.8990   -7.4653   -1.1383 C.2       1 <0>         0.5685
     21 O2         -2.0586   -7.2589   -1.4394 O.2       1 <0>        -0.5231
     22 N4         -0.4112   -8.7216   -1.1572 N.am      1 <0>        -0.7340
     23 C16        -1.2783   -9.8384   -1.5406 C.3       1 <0>         0.1223
     24 C17        -0.4844  -11.1448   -1.4794 C.3       1 <0>        -0.1545
     25 C18        -1.3900  -12.3112   -1.8799 C.3       1 <0>         0.0947
     26 N5         -0.6298  -13.5621   -1.8213 N.pl3     1 <0>        -0.4085
     27 C19         0.0933  -14.1216   -2.8400 C.2       1 <0>         0.0258
     28 C20         0.6288  -15.2595   -2.3585 C.2       1 <0>         0.0042
     29 N6          0.2432  -15.3913   -1.0806 N.pl3     1 <0>        -0.4761
     30 C21        -0.5068  -14.3757   -0.7505 C.cat     1 <0>         0.2888
     31 S1          1.3512   -0.3799    5.5515 S.o2      1 <0>         2.7005
     32 O3          1.1610    0.9735    5.9405 O.2       1 <0>        -0.9518
     33 O4          0.9776   -1.4710    6.3817 O.2       1 <0>        -0.9559
     34 N7          2.9666   -0.5585    5.2338 N.pl3     1 <0>        -1.2494
     35 H2         -0.9270   -3.0089    2.1511 H         1 <0>         0.1400
     36 H3          0.2662   -2.7018    4.2795 H         1 <0>         0.1524
     37 H4          0.5797    1.4859    3.5241 H         1 <0>         0.1608
     38 H5         -0.6159    1.2035    1.3937 H         1 <0>         0.1554
     39 H6         -1.5580   -4.8514   -0.9987 H         1 <0>         0.1483
     40 H7          1.6971   -7.5853   -0.4206 H         1 <0>         0.1319
     41 H8          3.1571   -5.7428    0.2211 H         1 <0>         0.1371
     42 H9          1.5286   -0.4530    1.3247 H         1 <0>         0.3954
     43 H10         0.5141   -8.8862   -0.9169 H         1 <0>         0.4014
     44 H11        -2.1234   -9.8943   -0.8545 H         1 <0>         0.0796
     45 H12        -1.6440   -9.6826   -2.5555 H         1 <0>         0.0800
     46 H13         0.3607  -11.0889   -2.1655 H         1 <0>         0.0892
     47 H14        -0.1187  -11.3006   -0.4645 H         1 <0>         0.0870
     48 H15        -2.2351  -12.3672   -1.1938 H         1 <0>         0.1274
     49 H16        -1.7557  -12.1554   -2.8948 H         1 <0>         0.1302
     50 H17         0.2114  -13.7265   -3.8382 H         1 <0>         0.2235
     51 H18         1.2585  -15.9457   -2.9054 H         1 <0>         0.2241
     52 H19        -0.9567  -14.2139    0.2179 H         1 <0>         0.2602
     53 H20         3.2655   -0.7441    4.3298 H         1 <0>         0.4134
     54 H21         3.6140   -0.4775    5.9516 H         1 <0>         0.4248
     55 H22         0.4865  -16.1240   -0.4934 H         1 <0>         0.4658
@<TRIPOS>BOND
     1    1    6 ar
     2    1    2 ar
     3    1   35 1
     4    2    3 ar
     5    2   36 1
     6    3    4 ar
     7    3   31 1
     8    4    5 ar
     9    4   37 1
    10    5    6 ar
    11    5   38 1
    12    6    7 1
    13    7    8 2
    14    8    9 1
    15    9   18 2
    16    9   10 1
    17   10   15 ar
    18   10   11 ar
    19   11   12 ar
    20   11   39 1
    21   12   13 ar
    22   12   20 1
    23   13   14 ar
    24   13   40 1
    25   14   15 ar
    26   14   41 1
    27   15   16 1
    28   16   17 1
    29   16   18 1
    30   18   19 1
    31   19   42 1
    32   20   21 2
    33   20   22 am
    34   22   23 1
    35   22   43 1
    36   23   24 1
    37   23   44 1
    38   23   45 1
    39   24   25 1
    40   24   46 1
    41   24   47 1
    42   25   26 1
    43   25   48 1
    44   25   49 1
    45   26   30 1
    46   26   27 1
    47   27   28 2
    48   27   50 1
    49   28   29 1
    50   28   51 1
    51   29   30 2
    52   29   55 1
    53   30   52 1
    54   31   32 2
    55   31   33 2
    56   31   34 1
    57   34   53 1
    58   34   54 1
@<TRIPOS>MOLECULE
CHEMBL137357
   54    57     0     0     0
SMALL
USER_CHARGES

@<TRIPOS>ATOM
      1 C1         -0.6010   -2.0239    2.4511 C.ar      1 <0>        -0.1354
      2 C2          0.0706   -1.8513    3.6433 C.ar      1 <0>        -0.0129
      3 C3          0.4940   -0.5908    4.0266 C.ar      1 <0>        -0.6787
      4 C4          0.2470    0.5049    3.2183 C.ar      1 <0>        -0.0161
      5 C5         -0.4235    0.3475    2.0234 C.ar      1 <0>        -0.1138
      6 C6         -0.8536   -0.9223    1.6297 C.ar      1 <0>         0.0546
      7 N1         -1.5186   -1.0860    0.4458 N.2       1 <0>        -0.1512
      8 N2         -1.0223   -1.8427   -0.4735 N.2       1 <0>        -0.0579
      9 C7          0.1122   -2.5336   -0.2387 C.2       1 <0>        -0.1108
     10 C8          0.3045   -3.9912   -0.3661 C.ar      1 <0>        -0.0657
     11 C9         -0.5287   -5.0406   -0.7321 C.ar      1 <0>         0.0041
     12 C10        -0.0250   -6.3398   -0.7519 C.ar      1 <0>        -0.1503
     13 C11         1.3110   -6.5768   -0.4043 C.ar      1 <0>        -0.0618
     14 C12         2.1291   -5.5457   -0.0449 C.ar      1 <0>        -0.1211
     15 C13         1.6442   -4.2401   -0.0190 C.ar      1 <0>         0.1305
     16 N3          2.2300   -3.0312    0.2970 N.pl3     1 <0>        -0.5749
     17 H1          3.1537   -2.9198    0.5713 H         1 <0>         0.4247
     18 C14         1.3331   -2.0164    0.1648 C.2       1 <0>         0.3000
     19 O1          1.5915   -0.7089    0.3943 O.3       1 <0>        -0.4539
     20 C15        -0.8990   -7.4653   -1.1383 C.2       1 <0>         0.5640
     21 O2         -2.0586   -7.2589   -1.4394 O.2       1 <0>        -0.5289
     22 N4         -0.4112   -8.7216   -1.1572 N.am      1 <0>        -0.7283
     23 C16        -1.2783   -9.8384   -1.5406 C.3       1 <0>         0.1224
     24 C17        -0.4844  -11.1448   -1.4794 C.3       1 <0>        -0.1488
     25 C18        -1.3900  -12.3112   -1.8799 C.3       1 <0>         0.1081
     26 N5         -0.6298  -13.5621   -1.8213 N.pl3     1 <0>        -0.4609
     27 C19         0.0929  -14.1218   -2.8402 C.2       1 <0>        -0.0572
     28 C20         0.6286  -15.2597   -2.3586 C.2       1 <0>        -0.0286
     29 N6          0.2435  -15.3912   -1.0806 N.2       1 <0>        -0.4948
     30 C21        -0.5064  -14.3755   -0.7504 C.2       1 <0>         0.1815
     31 S1          1.3512   -0.3799    5.5515 S.o2      1 <0>         2.7013
     32 O3          1.1610    0.9735    5.9405 O.2       1 <0>        -0.9540
     33 O4          0.9776   -1.4710    6.3817 O.2       1 <0>        -0.9533
     34 N7          2.9666   -0.5585    5.2338 N.pl3     1 <0>        -1.2476
     35 H2         -0.9270   -3.0089    2.1511 H         1 <0>         0.1408
     36 H3          0.2662   -2.7018    4.2795 H         1 <0>         0.1521
     37 H4          0.5797    1.4859    3.5241 H         1 <0>         0.1585
     38 H5         -0.6159    1.2035    1.3937 H         1 <0>         0.1537
     39 H6         -1.5580   -4.8514   -0.9987 H         1 <0>         0.1478
     40 H7          1.6971   -7.5853   -0.4206 H         1 <0>         0.1354
     41 H8          3.1571   -5.7428    0.2211 H         1 <0>         0.1370
     42 H9          1.5286   -0.4530    1.3247 H         1 <0>         0.3942
     43 H10         0.5141   -8.8862   -0.9169 H         1 <0>         0.4010
     44 H11        -2.1234   -9.8943   -0.8545 H         1 <0>         0.0757
     45 H12        -1.6440   -9.6826   -2.5555 H         1 <0>         0.0753
     46 H13         0.3607  -11.0889   -2.1655 H         1 <0>         0.0795
     47 H14        -0.1187  -11.3006   -0.4645 H         1 <0>         0.0802
     48 H15        -2.2351  -12.3672   -1.1938 H         1 <0>         0.1000
     49 H16        -1.7557  -12.1554   -2.8948 H         1 <0>         0.0976
     50 H17         0.2107  -13.7270   -3.8385 H         1 <0>         0.1739
     51 H18         1.2580  -15.9460   -2.9056 H         1 <0>         0.1696
     52 H19        -0.9560  -14.2135    0.2182 H         1 <0>         0.2040
     53 H20         3.6216   -0.0831    5.7686 H         1 <0>         0.4247
     54 H21         3.2579   -1.1384    4.5129 H         1 <0>         0.4146
@<TRIPOS>BOND
     1    1    6 ar
     2    1    2 ar
     3    1   35 1
     4    2    3 ar
     5    2   36 1
     6    3    4 ar
     7    3   31 1
     8    4    5 ar
     9    4   37 1
    10    5    6 ar
    11    5   38 1
    12    6    7 1
    13    7    8 2
    14    8    9 1
    15    9   18 2
    16    9   10 1
    17   10   15 ar
    18   10   11 ar
    19   11   12 ar
    20   11   39 1
    21   12   13 ar
    22   12   20 1
    23   13   14 ar
    24   13   40 1
    25   14   15 ar
    26   14   41 1
    27   15   16 1
    28   16   17 1
    29   16   18 1
    30   18   19 1
    31   19   42 1
    32   20   21 2
    33   20   22 am
    34   22   23 1
    35   22   43 1
    36   23   24 1
    37   23   44 1
    38   23   45 1
    39   24   25 1
    40   24   46 1
    41   24   47 1
    42   25   26 1
    43   25   48 1
    44   25   49 1
    45   26   30 1
    46   26   27 1
    47   27   28 2
    48   27   50 1
    49   28   29 1
    50   28   51 1
    51   29   30 2
    52   30   52 1
    53   31   32 2
    54   31   33 2
    55   31   34 1
    56   34   53 1
    57   34   54 1
@<TRIPOS>MOLECULE
CHEMBL137357
   55    58     0     0     0
SMALL
USER_CHARGES

@<TRIPOS>ATOM
      1 C1         -0.0169    1.3930    0.0097 C.ar      1 <0>        -0.0936
      2 C2          1.1700    2.0954    0.0021 C.ar      1 <0>        -0.0169
      3 C3          2.3776    1.4198   -0.0130 C.ar      1 <0>        -0.6686
      4 C4          2.4041    0.0363   -0.0212 C.ar      1 <0>        -0.0160
      5 C5          1.2251   -0.6794   -0.0137 C.ar      1 <0>        -0.1390
      6 C6          0.0021   -0.0041    0.0020 C.ar      1 <0>         0.1233
      7 N1         -1.1710   -0.7072    0.0099 N.2       1 <0>        -0.2585
      8 N2         -1.1500   -1.9970    0.0028 N.2       1 <0>        -0.1482
      9 C7         -2.3070   -2.6905    0.0105 C.2       1 <0>        -0.0370
     10 C8         -2.4603   -4.1582    0.0102 C.ar      1 <0>        -0.0582
     11 C9         -1.5612   -5.2170    0.0019 C.ar      1 <0>         0.0089
     12 C10        -2.0431   -6.5245    0.0043 C.ar      1 <0>        -0.1579
     13 C11        -3.4237   -6.7605    0.0150 C.ar      1 <0>        -0.0676
     14 C12        -4.3065   -5.7203    0.0231 C.ar      1 <0>        -0.1180
     15 C13        -3.8443   -4.4062    0.0209 C.ar      1 <0>         0.1268
     16 N3         -4.4915   -3.1873    0.0274 N.pl3     1 <0>        -0.5753
     17 H1         -5.4548   -3.0733    0.0354 H         1 <0>         0.4261
     18 C14        -3.5903   -2.1677    0.0266 C.2       1 <0>         0.3454
     19 O1         -3.8987   -0.8510    0.0366 O.3       1 <0>        -0.4402
     20 C15        -1.0993   -7.6599   -0.0050 C.2       1 <0>         0.5688
     21 O2          0.0989   -7.4544   -0.0146 O.2       1 <0>        -0.5240
     22 N4         -1.5661   -8.9242   -0.0026 N.am      1 <0>        -0.7343
     23 C16        -0.6297  -10.0509   -0.0118 C.3       1 <0>         0.1223
     24 C17        -1.4130  -11.3651   -0.0069 C.3       1 <0>        -0.1546
     25 C18        -0.4350  -12.5417   -0.0165 C.3       1 <0>         0.0947
     26 N5         -1.1850  -13.8002   -0.0118 N.pl3     1 <0>        -0.4085
     27 C19        -1.5969  -14.4962    1.0926 C.2       1 <0>         0.0257
     28 C20        -2.2488  -15.5864    0.6454 C.2       1 <0>         0.0042
     29 N6         -2.2354  -15.5569   -0.6955 N.pl3     1 <0>        -0.4763
     30 C21        -1.6043  -14.4872   -1.0962 C.cat     1 <0>         0.2889
     31 S1          3.8889    2.3257   -0.0226 S.o2      1 <0>         2.7015
     32 O3          4.8722    1.4693   -0.5874 O.2       1 <0>        -0.9614
     33 O4          3.5919    3.6056   -0.5637 O.2       1 <0>        -0.9600
     34 N7          4.3240    2.5689    1.5566 N.pl3     1 <0>        -1.2494
     35 H2         -0.9586    1.9215    0.0260 H         1 <0>         0.1455
     36 H3          1.1569    3.1753    0.0077 H         1 <0>         0.1522
     37 H4          3.3502   -0.4844   -0.0337 H         1 <0>         0.1469
     38 H5          1.2473   -1.7591   -0.0205 H         1 <0>         0.1450
     39 H6         -0.4978   -5.0284   -0.0067 H         1 <0>         0.1486
     40 H7         -3.7928   -7.7755    0.0164 H         1 <0>         0.1312
     41 H8         -5.3685   -5.9166    0.0310 H         1 <0>         0.1369
     42 H9         -3.9976   -0.4635   -0.8438 H         1 <0>         0.4130
     43 H10        -2.5222   -9.0883    0.0051 H         1 <0>         0.4015
     44 H11        -0.0097  -10.0007   -0.9069 H         1 <0>         0.0795
     45 H12         0.0050  -10.0029    0.8730 H         1 <0>         0.0797
     46 H13        -2.0330  -11.4153    0.8882 H         1 <0>         0.0891
     47 H14        -2.0478  -11.4131   -0.8917 H         1 <0>         0.0870
     48 H15         0.1850  -12.4916   -0.9116 H         1 <0>         0.1275
     49 H16         0.1997  -12.4938    0.8683 H         1 <0>         0.1301
     50 H17        -1.4306  -14.2236    2.1243 H         1 <0>         0.2234
     51 H18        -2.7028  -16.3505    1.2588 H         1 <0>         0.2240
     52 H19        -1.4419  -14.2003   -2.1246 H         1 <0>         0.2603
     53 H20         3.7655    2.2262    2.2719 H         1 <0>         0.4170
     54 H21         5.1373    3.0540    1.7664 H         1 <0>         0.4224
     55 H22        -2.6350  -16.2235   -1.2759 H         1 <0>         0.4658
@<TRIPOS>BOND
     1    1    6 ar
     2    1    2 ar
     3    1   35 1
     4    2    3 ar
     5    2   36 1
     6    3    4 ar
     7    3   31 1
     8    4    5 ar
     9    4   37 1
    10    5    6 ar
    11    5   38 1
    12    6    7 1
    13    7    8 2
    14    8    9 1
    15    9   18 2
    16    9   10 1
    17   10   15 ar
    18   10   11 ar
    19   11   12 ar
    20   11   39 1
    21   12   13 ar
    22   12   20 1
    23   13   14 ar
    24   13   40 1
    25   14   15 ar
    26   14   41 1
    27   15   16 1
    28   16   17 1
    29   16   18 1
    30   18   19 1
    31   19   42 1
    32   20   21 2
    33   20   22 am
    34   22   23 1
    35   22   43 1
    36   23   24 1
    37   23   44 1
    38   23   45 1
    39   24   25 1
    40   24   46 1
    41   24   47 1
    42   25   26 1
    43   25   48 1
    44   25   49 1
    45   26   30 1
    46   26   27 1
    47   27   28 2
    48   27   50 1
    49   28   29 1
    50   28   51 1
    51   29   30 2
    52   29   55 1
    53   30   52 1
    54   31   32 2
    55   31   33 2
    56   31   34 1
    57   34   53 1
    58   34   54 1
@<TRIPOS>MOLECULE
CHEMBL137357
   54    57     0     0     0
SMALL
USER_CHARGES

@<TRIPOS>ATOM
      1 C1         -0.0169    1.3930    0.0097 C.ar      1 <0>        -0.0967
      2 C2          1.1700    2.0954    0.0021 C.ar      1 <0>        -0.0206
      3 C3          2.3776    1.4198   -0.0130 C.ar      1 <0>        -0.6732
      4 C4          2.4041    0.0363   -0.0212 C.ar      1 <0>        -0.0131
      5 C5          1.2251   -0.6794   -0.0137 C.ar      1 <0>        -0.1409
      6 C6          0.0021   -0.0041    0.0020 C.ar      1 <0>         0.1273
      7 N1         -1.1710   -0.7072    0.0099 N.2       1 <0>        -0.2669
      8 N2         -1.1500   -1.9970    0.0028 N.2       1 <0>        -0.1432
      9 C7         -2.3070   -2.6905    0.0105 C.2       1 <0>        -0.0378
     10 C8         -2.4603   -4.1582    0.0102 C.ar      1 <0>        -0.0585
     11 C9         -1.5612   -5.2170    0.0019 C.ar      1 <0>         0.0046
     12 C10        -2.0431   -6.5245    0.0043 C.ar      1 <0>        -0.1493
     13 C11        -3.4237   -6.7605    0.0150 C.ar      1 <0>        -0.0653
     14 C12        -4.3065   -5.7203    0.0231 C.ar      1 <0>        -0.1181
     15 C13        -3.8443   -4.4062    0.0209 C.ar      1 <0>         0.1229
     16 N3         -4.4915   -3.1873    0.0274 N.pl3     1 <0>        -0.5746
     17 H1         -5.4548   -3.0733    0.0354 H         1 <0>         0.4251
     18 C14        -3.5903   -2.1677    0.0266 C.2       1 <0>         0.3454
     19 O1         -3.8987   -0.8510    0.0366 O.3       1 <0>        -0.4413
     20 C15        -1.0993   -7.6599   -0.0050 C.2       1 <0>         0.5642
     21 O2          0.0989   -7.4544   -0.0146 O.2       1 <0>        -0.5295
     22 N4         -1.5661   -8.9242   -0.0026 N.am      1 <0>        -0.7285
     23 C16        -0.6297  -10.0509   -0.0118 C.3       1 <0>         0.1224
     24 C17        -1.4130  -11.3651   -0.0069 C.3       1 <0>        -0.1489
     25 C18        -0.4350  -12.5417   -0.0165 C.3       1 <0>         0.1080
     26 N5         -1.1850  -13.8002   -0.0118 N.pl3     1 <0>        -0.4609
     27 C19        -1.5965  -14.4964    1.0926 C.2       1 <0>        -0.0571
     28 C20        -2.2485  -15.5865    0.6454 C.2       1 <0>        -0.0287
     29 N6         -2.2356  -15.5567   -0.6955 N.2       1 <0>        -0.4950
     30 C21        -1.6047  -14.4869   -1.0962 C.2       1 <0>         0.1816
     31 S1          3.8889    2.3257   -0.0226 S.o2      1 <0>         2.7023
     32 O3          4.8722    1.4693   -0.5874 O.2       1 <0>        -0.9613
     33 O4          3.5919    3.6056   -0.5637 O.2       1 <0>        -0.9595
     34 N7          4.3240    2.5689    1.5566 N.pl3     1 <0>        -1.2478
     35 H2         -0.9586    1.9215    0.0260 H         1 <0>         0.1441
     36 H3          1.1569    3.1753    0.0077 H         1 <0>         0.1501
     37 H4          3.3502   -0.4844   -0.0337 H         1 <0>         0.1457
     38 H5          1.2473   -1.7591   -0.0205 H         1 <0>         0.1454
     39 H6         -0.4978   -5.0284   -0.0067 H         1 <0>         0.1483
     40 H7         -3.7928   -7.7755    0.0164 H         1 <0>         0.1349
     41 H8         -5.3685   -5.9166    0.0310 H         1 <0>         0.1369
     42 H9         -3.9976   -0.4635   -0.8438 H         1 <0>         0.4114
     43 H10        -2.5222   -9.0883    0.0051 H         1 <0>         0.4011
     44 H11        -0.0097  -10.0007   -0.9069 H         1 <0>         0.0757
     45 H12         0.0050  -10.0029    0.8730 H         1 <0>         0.0750
     46 H13        -2.0330  -11.4153    0.8882 H         1 <0>         0.0795
     47 H14        -2.0478  -11.4131   -0.8917 H         1 <0>         0.0802
     48 H15         0.1850  -12.4916   -0.9116 H         1 <0>         0.1000
     49 H16         0.1997  -12.4938    0.8683 H         1 <0>         0.0975
     50 H17        -1.4298  -14.2240    2.1243 H         1 <0>         0.1739
     51 H18        -2.7023  -16.3508    1.2588 H         1 <0>         0.1696
     52 H19        -1.4427  -14.1998   -2.1246 H         1 <0>         0.2040
     53 H20         5.2614    2.6383    1.7963 H         1 <0>         0.4222
     54 H21         3.6415    2.6419    2.2420 H         1 <0>         0.4175
@<TRIPOS>BOND
     1    1    6 ar
     2    1    2 ar
     3    1   35 1
     4    2    3 ar
     5    2   36 1
     6    3    4 ar
     7    3   31 1
     8    4    5 ar
     9    4   37 1
    10    5    6 ar
    11    5   38 1
    12    6    7 1
    13    7    8 2
    14    8    9 1
    15    9   18 2
    16    9   10 1
    17   10   15 ar
    18   10   11 ar
    19   11   12 ar
    20   11   39 1
    21   12   13 ar
    22   12   20 1
    23   13   14 ar
    24   13   40 1
    25   14   15 ar
    26   14   41 1
    27   15   16 1
    28   16   17 1
    29   16   18 1
    30   18   19 1
    31   19   42 1
    32   20   21 2
    33   20   22 am
    34   22   23 1
    35   22   43 1
    36   23   24 1
    37   23   44 1
    38   23   45 1
    39   24   25 1
    40   24   46 1
    41   24   47 1
    42   25   26 1
    43   25   48 1
    44   25   49 1
    45   26   30 1
    46   26   27 1
    47   27   28 2
    48   27   50 1
    49   28   29 1
    50   28   51 1
    51   29   30 2
    52   30   52 1
    53   31   32 2
    54   31   33 2
    55   31   34 1
    56   34   53 1
    57   34   54 1
@<TRIPOS>MOLECULE
CHEMBL213713
   51    53     0     0     0
SMALL
USER_CHARGES

@<TRIPOS>ATOM
      1 C1         -0.3496    1.4022    0.1185 C.3       1 <0>         0.0131
      2 O1         -0.1953   -0.0174    0.0635 O.3       1 <0>        -0.2687
      3 C2         -1.2515   -0.7345   -0.3966 C.ar      1 <0>         0.2370
      4 C3         -2.4103   -0.0881   -0.7925 C.ar      1 <0>        -0.2473
      5 C4         -3.4884   -0.8187   -1.2620 C.ar      1 <0>         0.1791
      6 C5         -3.4179   -2.2035   -1.3395 C.ar      1 <0>        -0.0194
      7 C6         -2.2694   -2.8640   -0.9481 C.ar      1 <0>         0.1928
      8 C7         -1.1708   -2.1329   -0.4780 C.ar      1 <0>        -0.2318
      9 C8          0.0598   -2.8289   -0.0648 C.2       1 <0>         0.4683
     10 O2          1.0443   -2.1876    0.2528 O.2       1 <0>        -0.4082
     11 C9          0.0990   -4.2998   -0.0360 C.ar      1 <0>        -0.3841
     12 C10         0.7578   -5.0218   -1.0382 C.ar      1 <0>         0.2631
     13 N1          0.7702   -6.3402   -0.9764 N.ar      1 <0>        -0.5947
     14 C11         0.1705   -6.9865    0.0165 C.ar      1 <0>         0.6177
     15 N2         -0.4660   -6.3488    0.9876 N.ar      1 <0>        -0.6233
     16 C12        -0.5221   -5.0223    1.0068 C.ar      1 <0>         0.5193
     17 N3         -1.1801   -4.3623    2.0228 N.pl3     1 <0>        -0.8289
     18 N4          0.2112   -8.3651    0.0371 N.pl3     1 <0>        -0.6876
     19 C13         0.9084   -9.0933   -1.0258 C.3       1 <0>         0.1626
     20 C14        -0.0341   -9.2835   -2.2165 C.3       1 <0>        -0.1411
     21 C15         0.7089  -10.0147   -3.3390 C.3       1 <0>         0.1213
     22 N5          1.2637  -11.2651   -2.8028 N.pl3     1 <0>        -1.0023
     23 C16         2.1108  -11.2051   -1.6038 C.3       1 <0>         0.1233
     24 C17         1.3521  -10.4606   -0.5007 C.3       1 <0>        -0.1415
     25 S1          0.9398  -12.7144   -3.5354 S.o2      1 <0>         2.6096
     26 O3          1.0660  -13.6800   -2.5006 O.2       1 <0>        -0.9544
     27 O4         -0.3034  -12.5175   -4.1949 O.2       1 <0>        -0.9532
     28 C18         2.2666  -12.9275   -4.7540 C.3       1 <0>        -0.6736
     29 F1         -2.2038   -4.2112   -1.0241 F         1 <0>        -0.0931
     30 F2         -4.4759   -2.9070   -1.7987 F         1 <0>        -0.1121
     31 F3         -4.6157   -0.1810   -1.6465 F         1 <0>        -0.1056
     32 H1         -0.5499    1.7850   -0.8822 H         1 <0>         0.0664
     33 H2         -1.1820    1.6520    0.7764 H         1 <0>         0.0658
     34 H3          0.5654    1.8525    0.5033 H         1 <0>         0.1144
     35 H4         -2.4733    0.9885   -0.7347 H         1 <0>         0.1675
     36 H5          1.2488   -4.5071   -1.8509 H         1 <0>         0.1686
     37 H6         -1.2800   -3.3980    1.9899 H         1 <0>         0.4091
     38 H7         -1.5432   -4.8622    2.7706 H         1 <0>         0.4126
     39 H8         -0.2219   -8.8524    0.7554 H         1 <0>         0.4139
     40 H9          1.7828   -8.5247   -1.3423 H         1 <0>         0.0989
     41 H10        -0.8969   -9.8733   -1.9069 H         1 <0>         0.0700
     42 H11        -0.3681   -8.3100   -2.5752 H         1 <0>         0.0835
     43 H12         0.0158  -10.2404   -4.1494 H         1 <0>         0.0975
     44 H13         1.5178   -9.3862   -3.7116 H         1 <0>         0.0751
     45 H14         2.3427  -12.2163   -1.2693 H         1 <0>         0.1004
     46 H15         3.0340  -10.6738   -1.8349 H         1 <0>         0.0750
     47 H16         2.0046  -10.3249    0.3617 H         1 <0>         0.0845
     48 H17         0.4762  -11.0393   -0.2073 H         1 <0>         0.0767
     49 H18         3.2298  -12.9399   -4.2440 H         1 <0>         0.1276
     50 H19         2.1245  -13.8688   -5.2850 H         1 <0>         0.1280
     51 H20         2.2427  -12.1019   -5.4653 H         1 <0>         0.1279
@<TRIPOS>BOND
     1    1    2 1
     2    1   32 1
     3    1   33 1
     4    1   34 1
     5    2    3 1
     6    3    8 ar
     7    3    4 ar
     8    4    5 ar
     9    4   35 1
    10    5    6 ar
    11    5   31 1
    12    6    7 ar
    13    6   30 1
    14    7    8 ar
    15    7   29 1
    16    8    9 1
    17    9   10 2
    18    9   11 1
    19   11   16 ar
    20   11   12 ar
    21   12   13 ar
    22   12   36 1
    23   13   14 ar
    24   14   15 ar
    25   14   18 1
    26   15   16 ar
    27   16   17 1
    28   17   37 1
    29   17   38 1
    30   18   19 1
    31   18   39 1
    32   19   24 1
    33   19   20 1
    34   19   40 1
    35   20   21 1
    36   20   41 1
    37   20   42 1
    38   21   22 1
    39   21   43 1
    40   21   44 1
    41   22   23 1
    42   22   25 1
    43   23   24 1
    44   23   45 1
    45   23   46 1
    46   24   47 1
    47   24   48 1
    48   25   26 2
    49   25   27 2
    50   25   28 1
    51   28   49 1
    52   28   50 1
    53   28   51 1
@<TRIPOS>MOLECULE
CHEMBL483590
   58    61     0     0     0
SMALL
USER_CHARGES

@<TRIPOS>ATOM
      1 C1          1.3931    0.8703   -0.4244 C.3       1 <0>        -0.1153
      2 C2          1.1853   -0.6072   -0.2120 C.cat     1 <0>         0.3301
      3 N1          0.4687   -1.3897   -0.9749 N.pl3     1 <0>        -0.4769
      4 C3          0.5026   -2.6365   -0.4951 C.2       1 <0>         0.0636
      5 C4          1.2795   -2.6324    0.6239 C.2       1 <0>         0.0867
      6 N2          1.7135   -1.3354    0.7925 N.pl3     1 <0>        -0.3710
      7 C5          2.5828   -0.8405    1.8628 C.3       1 <0>         0.0073
      8 C6          3.7255    0.0973    1.4680 C.3       1 <0>        -0.1522
      9 C7          4.0279   -1.3425    1.8882 C.3       1 <0>        -0.1531
     10 C8          1.5980   -3.7899    1.4833 C.ar      1 <0>         0.2646
     11 C9          2.3056   -3.6148    2.6794 C.ar      1 <0>        -0.2693
     12 C10         2.5797   -4.7281    3.4505 C.ar      1 <0>         0.2121
     13 N3          2.1690   -5.9187    3.0399 N.ar      1 <0>        -0.5369
     14 C11         1.5011   -6.0566    1.9037 C.ar      1 <0>         0.5798
     15 N4          1.2119   -5.0178    1.1361 N.ar      1 <0>        -0.5466
     16 N5          1.0906   -7.3203    1.5115 N.pl3     1 <0>        -0.6312
     17 C12         1.4417   -8.4377    2.2750 C.ar      1 <0>         0.2047
     18 C13         1.5022   -8.3436    3.6594 C.ar      1 <0>        -0.1344
     19 C14         1.8489   -9.4494    4.4107 C.ar      1 <0>        -0.0027
     20 C15         2.1357  -10.6493    3.7860 C.ar      1 <0>        -0.6863
     21 C16         2.0769  -10.7462    2.4078 C.ar      1 <0>         0.0053
     22 C17         1.7253   -9.6458    1.6510 C.ar      1 <0>        -0.1604
     23 S1          2.5777  -12.0576    4.7482 S.o2      1 <0>         2.6878
     24 O1          3.3285  -12.9121    3.8965 O.2       1 <0>        -0.9490
     25 O2          3.0920  -11.5644    5.9777 O.2       1 <0>        -0.9534
     26 N6          1.1765  -12.8626    5.1102 N.pl3     1 <0>        -0.9921
     27 C18         0.6772  -13.9051    4.2103 C.3       1 <0>         0.0928
     28 C19         0.4362  -12.5321    6.3305 C.3       1 <0>         0.1140
     29 C20        -0.6613  -11.5179    6.0023 C.3       1 <0>         0.0357
     30 O3         -1.6200  -12.1191    5.1297 O.3       1 <0>        -0.3818
     31 C21        -2.6935  -11.2515    4.7596 C.3       1 <0>         0.0309
     32 H1          2.3176    1.0311   -0.9788 H         1 <0>         0.1239
     33 H2          0.5548    1.2775   -0.9898 H         1 <0>         0.1202
     34 H3          1.4570    1.3708    0.5418 H         1 <0>         0.1213
     35 H4          0.0024   -3.4948   -0.9188 H         1 <0>         0.2334
     36 H5          2.0945   -0.6637    2.8211 H         1 <0>         0.1716
     37 H6          3.8304    0.3460    0.4120 H         1 <0>         0.1149
     38 H7          3.9890    0.8914    2.1667 H         1 <0>         0.1369
     39 H8          4.4904   -1.4956    2.8633 H         1 <0>         0.1363
     40 H9          4.3318   -2.0410    1.1086 H         1 <0>         0.1142
     41 H10         2.6295   -2.6329    2.9914 H         1 <0>         0.1578
     42 H11         3.1236   -4.6288    4.3783 H         1 <0>         0.1866
     43 H12         0.5595   -7.4299    0.7072 H         1 <0>         0.4301
     44 H13         1.2786   -7.4067    4.1479 H         1 <0>         0.1480
     45 H14         1.8964   -9.3768    5.4872 H         1 <0>         0.1441
     46 H15         2.3022  -11.6846    1.9230 H         1 <0>         0.1470
     47 H16         1.6753   -9.7234    0.5749 H         1 <0>         0.1375
     48 H17         1.0923  -14.8689    4.5050 H         1 <0>         0.0614
     49 H18        -0.4105  -13.9449    4.2684 H         1 <0>         0.0880
     50 H19         0.9783  -13.6772    3.1878 H         1 <0>         0.0676
     51 H20        -0.0151  -13.4368    6.7379 H         1 <0>         0.0992
     52 H21         1.1187  -12.1042    7.0648 H         1 <0>         0.1112
     53 H22        -1.1539  -11.2050    6.9229 H         1 <0>         0.0648
     54 H23        -0.2193  -10.6496    5.5136 H         1 <0>         0.0484
     55 H24        -3.2283  -10.9331    5.6544 H         1 <0>         0.0423
     56 H25        -2.2936  -10.3777    4.2450 H         1 <0>         0.0365
     57 H26        -3.3774  -11.7820    4.0970 H         1 <0>         0.0871
     58 H27        -0.0143   -1.1085   -1.7677 H         1 <0>         0.4671
@<TRIPOS>BOND
     1    1    2 1
     2    1   32 1
     3    1   33 1
     4    1   34 1
     5    2    6 1
     6    2    3 2
     7    3    4 1
     8    3   58 1
     9    4    5 2
    10    4   35 1
    11    5    6 1
    12    5   10 1
    13    6    7 1
    14    7    9 1
    15    7    8 1
    16    7   36 1
    17    8    9 1
    18    8   37 1
    19    8   38 1
    20    9   39 1
    21    9   40 1
    22   10   15 ar
    23   10   11 ar
    24   11   12 ar
    25   11   41 1
    26   12   13 ar
    27   12   42 1
    28   13   14 ar
    29   14   15 ar
    30   14   16 1
    31   16   17 1
    32   16   43 1
    33   17   22 ar
    34   17   18 ar
    35   18   19 ar
    36   18   44 1
    37   19   20 ar
    38   19   45 1
    39   20   21 ar
    40   20   23 1
    41   21   22 ar
    42   21   46 1
    43   22   47 1
    44   23   24 2
    45   23   25 2
    46   23   26 1
    47   26   27 1
    48   26   28 1
    49   27   48 1
    50   27   49 1
    51   27   50 1
    52   28   29 1
    53   28   51 1
    54   28   52 1
    55   29   30 1
    56   29   53 1
    57   29   54 1
    58   30   31 1
    59   31   55 1
    60   31   56 1
    61   31   57 1
@<TRIPOS>MOLECULE
CHEMBL483590
   57    60     0     0     0
SMALL
USER_CHARGES

@<TRIPOS>ATOM
      1 C1          1.3931    0.8703   -0.4244 C.3       1 <0>        -0.0736
      2 C2          1.1853   -0.6072   -0.2120 C.2       1 <0>         0.2418
      3 N1          0.4687   -1.3897   -0.9749 N.2       1 <0>        -0.4932
      4 C3          0.5026   -2.6365   -0.4951 C.2       1 <0>         0.0595
      5 C4          1.2795   -2.6324    0.6239 C.2       1 <0>        -0.0175
      6 N2          1.7135   -1.3354    0.7925 N.pl3     1 <0>        -0.4192
      7 C5          2.5828   -0.8405    1.8628 C.3       1 <0>         0.0352
      8 C6          3.7255    0.0973    1.4680 C.3       1 <0>        -0.1613
      9 C7          4.0279   -1.3425    1.8882 C.3       1 <0>        -0.1674
     10 C8          1.5980   -3.7899    1.4833 C.ar      1 <0>         0.3068
     11 C9          2.3056   -3.6148    2.6794 C.ar      1 <0>        -0.2853
     12 C10         2.5797   -4.7282    3.4505 C.ar      1 <0>         0.1959
     13 N3          2.1690   -5.9187    3.0399 N.ar      1 <0>        -0.5603
     14 C11         1.5011   -6.0566    1.9037 C.ar      1 <0>         0.5682
     15 N4          1.2119   -5.0178    1.1361 N.ar      1 <0>        -0.5517
     16 N5          1.0906   -7.3203    1.5115 N.pl3     1 <0>        -0.6391
     17 C12         1.4417   -8.4377    2.2749 C.ar      1 <0>         0.2223
     18 C13         1.5022   -8.3436    3.6594 C.ar      1 <0>        -0.1365
     19 C14         1.8489   -9.4494    4.4107 C.ar      1 <0>        -0.0038
     20 C15         2.1357  -10.6493    3.7860 C.ar      1 <0>        -0.6952
     21 C16         2.0769  -10.7462    2.4078 C.ar      1 <0>         0.0043
     22 C17         1.7253   -9.6458    1.6510 C.ar      1 <0>        -0.1679
     23 S1          2.5777  -12.0576    4.7482 S.o2      1 <0>         2.6903
     24 O1          3.3285  -12.9121    3.8965 O.2       1 <0>        -0.9534
     25 O2          3.0920  -11.5644    5.9776 O.2       1 <0>        -0.9570
     26 N6          1.1765  -12.8626    5.1102 N.pl3     1 <0>        -0.9936
     27 C18         0.6772  -13.9051    4.2103 C.3       1 <0>         0.0940
     28 C19         0.4362  -12.5321    6.3305 C.3       1 <0>         0.1156
     29 C20        -0.6613  -11.5179    6.0023 C.3       1 <0>         0.0346
     30 O3         -1.6200  -12.1191    5.1297 O.3       1 <0>        -0.3827
     31 C21        -2.6935  -11.2515    4.7596 C.3       1 <0>         0.0304
     32 H1          2.3177    1.0311   -0.9788 H         1 <0>         0.0840
     33 H2          0.5549    1.2775   -0.9898 H         1 <0>         0.0957
     34 H3          1.4570    1.3708    0.5418 H         1 <0>         0.0798
     35 H4          0.0024   -3.4948   -0.9188 H         1 <0>         0.1824
     36 H5          2.0945   -0.6637    2.8211 H         1 <0>         0.1410
     37 H6          3.8304    0.3460    0.4120 H         1 <0>         0.1083
     38 H7          3.9890    0.8914    2.1667 H         1 <0>         0.1194
     39 H8          4.4904   -1.4956    2.8633 H         1 <0>         0.1181
     40 H9          4.3318   -2.0410    1.1086 H         1 <0>         0.1043
     41 H10         2.6295   -2.6329    2.9914 H         1 <0>         0.1530
     42 H11         3.1236   -4.6288    4.3783 H         1 <0>         0.1746
     43 H12         0.5595   -7.4299    0.7072 H         1 <0>         0.4280
     44 H13         1.2786   -7.4067    4.1479 H         1 <0>         0.1497
     45 H14         1.8964   -9.3768    5.4872 H         1 <0>         0.1405
     46 H15         2.3023  -11.6846    1.9230 H         1 <0>         0.1431
     47 H16         1.6753   -9.7234    0.5749 H         1 <0>         0.1359
     48 H17         1.0923  -14.8689    4.5050 H         1 <0>         0.0588
     49 H18        -0.4105  -13.9449    4.2684 H         1 <0>         0.0869
     50 H19         0.9783  -13.6772    3.1878 H         1 <0>         0.0678
     51 H20        -0.0151  -13.4368    6.7379 H         1 <0>         0.0965
     52 H21         1.1187  -12.1042    7.0648 H         1 <0>         0.1103
     53 H22        -1.1539  -11.2050    6.9229 H         1 <0>         0.0635
     54 H23        -0.2193  -10.6496    5.5136 H         1 <0>         0.0513
     55 H24        -3.2283  -10.9331    5.6544 H         1 <0>         0.0413
     56 H25        -2.2936  -10.3777    4.2450 H         1 <0>         0.0392
     57 H26        -3.3774  -11.7820    4.0970 H         1 <0>         0.0863
@<TRIPOS>BOND
     1    1    2 1
     2    1   32 1
     3    1   33 1
     4    1   34 1
     5    2    6 1
     6    2    3 2
     7    3    4 1
     8    4    5 2
     9    4   35 1
    10    5    6 1
    11    5   10 1
    12    6    7 1
    13    7    9 1
    14    7    8 1
    15    7   36 1
    16    8    9 1
    17    8   37 1
    18    8   38 1
    19    9   39 1
    20    9   40 1
    21   10   15 ar
    22   10   11 ar
    23   11   12 ar
    24   11   41 1
    25   12   13 ar
    26   12   42 1
    27   13   14 ar
    28   14   15 ar
    29   14   16 1
    30   16   17 1
    31   16   43 1
    32   17   22 ar
    33   17   18 ar
    34   18   19 ar
    35   18   44 1
    36   19   20 ar
    37   19   45 1
    38   20   21 ar
    39   20   23 1
    40   21   22 ar
    41   21   46 1
    42   22   47 1
    43   23   24 2
    44   23   25 2
    45   23   26 1
    46   26   27 1
    47   26   28 1
    48   27   48 1
    49   27   49 1
    50   27   50 1
    51   28   29 1
    52   28   51 1
    53   28   52 1
    54   29   30 1
    55   29   53 1
    56   29   54 1
    57   30   31 1
    58   31   55 1
    59   31   56 1
    60   31   57 1
@<TRIPOS>MOLECULE
CHEMBL76872
   40    42     0     0     0
SMALL
USER_CHARGES

@<TRIPOS>ATOM
      1 C1         -5.0854    1.8596    0.0409 C.3       1 <0>        -0.1523
      2 C2         -5.3295    0.3493    0.0541 C.3       1 <0>        -0.1231
      3 C3         -3.9873   -0.3846    0.0253 C.3       1 <0>        -0.1177
      4 C4         -4.2260   -1.8897    0.1618 C.3       1 <0>         0.0594
      5 O1         -2.9697   -2.5651    0.2495 O.3       1 <0>        -0.3371
      6 C5         -2.9999   -3.9209    0.2728 C.ar      1 <0>         0.3434
      7 C6         -2.9519   -4.6160    1.4719 C.ar      1 <0>        -0.7844
      8 C7         -2.9847   -6.0007    1.4589 C.ar      1 <0>         0.2742
      9 N1         -3.0604   -6.6777    0.3329 N.ar      1 <0>        -0.5102
     10 H1         -3.2241   -7.4508   -2.4120 H         1 <0>         0.4524
     11 C8         -3.1094   -6.0692   -0.8468 C.ar      1 <0>         0.3647
     12 N2         -3.1882   -6.5214   -2.1367 N.pl3     1 <0>        -0.4798
     13 N3         -3.2078   -5.4117   -2.9897 N.2       1 <0>        -0.2312
     14 C9         -3.1453   -4.3172   -2.2883 C.2       1 <0>         0.1095
     15 C10        -3.0866   -4.6644   -0.9187 C.ar      1 <0>        -0.2706
     16 S1         -2.8496   -3.7445    2.9999 S.o2      1 <0>         2.5999
     17 O2         -3.8424   -2.7288    2.9554 O.2       1 <0>        -0.9291
     18 O3         -2.8103   -4.7269    4.0259 O.2       1 <0>        -0.9336
     19 C11        -1.2906   -2.9240    3.0283 C.ar      1 <0>        -0.6562
     20 C12        -0.1586   -3.6048    3.4356 C.ar      1 <0>        -0.0218
     21 C13         1.0646   -2.9611    3.4579 C.ar      1 <0>        -0.1413
     22 C14         1.1557   -1.6367    3.0724 C.ar      1 <0>        -0.0606
     23 C15         0.0238   -0.9561    2.6642 C.ar      1 <0>        -0.1410
     24 C16        -1.1985   -1.6011    2.6378 C.ar      1 <0>        -0.0071
     25 H2         -6.0416    2.3824    0.0614 H         1 <0>         0.0578
     26 H3         -4.4989    2.1405    0.9156 H         1 <0>         0.0570
     27 H4         -4.5417    2.1319   -0.8638 H         1 <0>         0.0551
     28 H5         -5.8732    0.0770    0.9587 H         1 <0>         0.0704
     29 H6         -5.9160    0.0684   -0.8207 H         1 <0>         0.0646
     30 H7         -3.4821   -0.1810   -0.9188 H         1 <0>         0.0735
     31 H8         -3.3664   -0.0387    0.8516 H         1 <0>         0.0783
     32 H9         -4.8072   -2.0851    1.0630 H         1 <0>         0.0937
     33 H10        -4.7729   -2.2513   -0.7089 H         1 <0>         0.0612
     34 H11        -2.9467   -6.5377    2.3952 H         1 <0>         0.1937
     35 H12        -3.1426   -3.3127   -2.6851 H         1 <0>         0.2043
     36 H13        -0.2298   -4.6395    3.7368 H         1 <0>         0.1403
     37 H14         1.9489   -3.4927    3.7768 H         1 <0>         0.1342
     38 H15         2.1112   -1.1335    3.0904 H         1 <0>         0.1318
     39 H16         0.0950    0.0787    2.3633 H         1 <0>         0.1340
     40 H17        -2.0822   -1.0705    2.3154 H         1 <0>         0.1436
@<TRIPOS>BOND
     1    1    2 1
     2    1   25 1
     3    1   26 1
     4    1   27 1
     5    2    3 1
     6    2   28 1
     7    2   29 1
     8    3    4 1
     9    3   30 1
    10    3   31 1
    11    4    5 1
    12    4   32 1
    13    4   33 1
    14    5    6 1
    15    6    7 ar
    16    6   15 ar
    17    7    8 ar
    18    7   16 1
    19    8    9 ar
    20    8   34 1
    21    9   11 ar
    22   10   12 1
    23   11   12 1
    24   11   15 ar
    25   12   13 1
    26   13   14 2
    27   14   15 1
    28   14   35 1
    29   16   17 2
    30   16   18 2
    31   16   19 1
    32   19   24 ar
    33   19   20 ar
    34   20   21 ar
    35   20   36 1
    36   21   22 ar
    37   21   37 1
    38   22   23 ar
    39   22   38 1
    40   23   24 ar
    41   23   39 1
    42   24   40 1
@<TRIPOS>MOLECULE
CHEMBL76925
   39    41     0     0     0
SMALL
USER_CHARGES

@<TRIPOS>ATOM
      1 C1         -0.5496    1.7159   -0.1323 C.3       1 <0>        -0.1536
      2 C2         -0.4110    0.1922   -0.1324 C.3       1 <0>        -0.1240
      3 C3         -1.7999   -0.4462   -0.0655 C.3       1 <0>        -0.1219
      4 C4         -1.6613   -1.9699   -0.0656 C.3       1 <0>         0.0616
      5 O1         -2.9584   -2.5662   -0.0031 O.3       1 <0>        -0.3304
      6 C5         -3.0201   -3.9177   -0.0991 C.ar      1 <0>         0.3142
      7 C6         -3.0585   -4.7134    1.0361 C.ar      1 <0>        -0.5863
      8 C7         -3.1213   -6.0906    0.9014 C.ar      1 <0>         0.2489
      9 N1         -3.1456   -6.6669   -0.2815 N.ar      1 <0>        -0.5151
     10 H1         -3.1641   -7.1987   -3.0879 H         1 <0>         0.4497
     11 C8         -3.1112   -5.9591   -1.4050 C.ar      1 <0>         0.3511
     12 N2         -3.1239   -6.2975   -2.7315 N.pl3     1 <0>        -0.4850
     13 N3         -3.0683   -5.1190   -3.4850 N.2       1 <0>        -0.2343
     14 C9         -3.0229   -4.0903   -2.6889 C.2       1 <0>         0.1034
     15 C10        -3.0529   -4.5544   -1.3535 C.ar      1 <0>        -0.2645
     16 S1         -3.0271   -3.9784    2.6371 S.o       1 <0>         1.4286
     17 O2         -2.7473   -5.0651    3.5089 O.2       1 <0>        -0.8507
     18 C11        -4.7156   -3.5944    2.9630 C.ar      1 <0>        -0.4694
     19 C12        -5.2010   -2.3284    2.6934 C.ar      1 <0>        -0.0327
     20 C13        -6.5257   -2.0272    2.9491 C.ar      1 <0>        -0.1389
     21 C14        -7.3651   -2.9919    3.4740 C.ar      1 <0>        -0.0815
     22 C15        -6.8799   -4.2581    3.7428 C.ar      1 <0>        -0.1383
     23 C16        -5.5563   -4.5607    3.4831 C.ar      1 <0>        -0.0498
     24 H2          0.4398    2.1708   -0.1800 H         1 <0>         0.0572
     25 H3         -1.1349    2.0276   -0.9975 H         1 <0>         0.0558
     26 H4         -1.0525    2.0350    0.7806 H         1 <0>         0.0576
     27 H5          0.0919   -0.1268   -1.0454 H         1 <0>         0.0650
     28 H6          0.1742   -0.1194    0.7327 H         1 <0>         0.0682
     29 H7         -2.3028   -0.1272    0.8474 H         1 <0>         0.0813
     30 H8         -2.3851   -0.1345   -0.9307 H         1 <0>         0.0775
     31 H9         -1.1583   -2.2889   -0.9785 H         1 <0>         0.0646
     32 H10        -1.0760   -2.2816    0.7995 H         1 <0>         0.0685
     33 H11        -3.1507   -6.7062    1.7883 H         1 <0>         0.1775
     34 H12        -2.9744   -3.0562   -2.9965 H         1 <0>         0.2021
     35 H13        -4.5452   -1.5747    2.2833 H         1 <0>         0.1378
     36 H14        -6.9048   -1.0379    2.7391 H         1 <0>         0.1293
     37 H15        -8.3998   -2.7564    3.6744 H         1 <0>         0.1256
     38 H16        -7.5356   -5.0118    4.1532 H         1 <0>         0.1247
     39 H17        -5.1781   -5.5510    3.6896 H         1 <0>         0.1261
@<TRIPOS>BOND
     1    1    2 1
     2    1   24 1
     3    1   25 1
     4    1   26 1
     5    2    3 1
     6    2   27 1
     7    2   28 1
     8    3    4 1
     9    3   29 1
    10    3   30 1
    11    4    5 1
    12    4   31 1
    13    4   32 1
    14    5    6 1
    15    6    7 ar
    16    6   15 ar
    17    7    8 ar
    18    7   16 1
    19    8    9 ar
    20    8   33 1
    21    9   11 ar
    22   10   12 1
    23   11   12 1
    24   11   15 ar
    25   12   13 1
    26   13   14 2
    27   14   15 1
    28   14   34 1
    29   16   17 2
    30   16   18 1
    31   18   23 ar
    32   18   19 ar
    33   19   20 ar
    34   19   35 1
    35   20   21 ar
    36   20   36 1
    37   21   22 ar
    38   21   37 1
    39   22   23 ar
    40   22   38 1
    41   23   39 1
@<TRIPOS>MOLECULE
CHEMBL76925
   39    41     0     0     0
SMALL
USER_CHARGES

@<TRIPOS>ATOM
      1 C1         -0.4033    1.9820    1.4330 C.3       1 <0>        -0.1511
      2 C2         -0.2892    0.5460    0.9175 C.3       1 <0>        -0.1195
      3 C3         -1.6805   -0.0883    0.8630 C.3       1 <0>        -0.1136
      4 C4         -1.5664   -1.5243    0.3475 C.3       1 <0>         0.0911
      5 O1         -2.8659   -2.1168    0.2966 O.3       1 <0>        -0.3277
      6 C5         -2.9317   -3.4284   -0.0423 C.ar      1 <0>         0.3074
      7 C6         -3.0110   -4.4142    0.9300 C.ar      1 <0>        -0.5940
      8 C7         -3.0768   -5.7442    0.5484 C.ar      1 <0>         0.2548
      9 N1         -3.0661   -6.0989   -0.7189 N.ar      1 <0>        -0.5170
     10 H1         -2.9972   -6.1189   -3.5744 H         1 <0>         0.4494
     11 C8         -2.9918   -5.2015   -1.6955 C.ar      1 <0>         0.3518
     12 N2         -2.9636   -5.2966   -3.0609 N.pl3     1 <0>        -0.4850
     13 N3         -2.8775   -4.0029   -3.5886 N.2       1 <0>        -0.2363
     14 C9         -2.8521   -3.1340   -2.6199 C.2       1 <0>         0.1021
     15 C10        -2.9276   -3.8296   -1.3910 C.ar      1 <0>        -0.2696
     16 S1         -3.0271   -3.9784    2.6371 S.o       1 <0>         1.4291
     17 O2         -2.3740   -2.7170    2.6761 O.2       1 <0>        -0.8346
     18 C11        -4.7156   -3.5944    2.9630 C.ar      1 <0>        -0.4703
     19 C12        -5.2010   -2.3284    2.6934 C.ar      1 <0>        -0.0398
     20 C13        -6.5257   -2.0272    2.9491 C.ar      1 <0>        -0.1406
     21 C14        -7.3651   -2.9919    3.4740 C.ar      1 <0>        -0.0832
     22 C15        -6.8799   -4.2581    3.7428 C.ar      1 <0>        -0.1411
     23 C16        -5.5563   -4.5607    3.4831 C.ar      1 <0>        -0.0431
     24 H2          0.5879    2.4339    1.4718 H         1 <0>         0.0563
     25 H3         -1.0398    2.5593    0.7624 H         1 <0>         0.0542
     26 H4         -0.8392    1.9759    2.4320 H         1 <0>         0.0562
     27 H5          0.1467    0.5521   -0.0815 H         1 <0>         0.0609
     28 H6          0.3473   -0.0313    1.5881 H         1 <0>         0.0654
     29 H7         -2.1164   -0.0944    1.8620 H         1 <0>         0.0823
     30 H8         -2.3170    0.4890    0.1924 H         1 <0>         0.0656
     31 H9         -1.1305   -1.5182   -0.6515 H         1 <0>         0.0462
     32 H10        -0.9299   -2.1016    1.0181 H         1 <0>         0.0710
     33 H11        -3.1380   -6.5084    1.3091 H         1 <0>         0.1832
     34 H12        -2.7881   -2.0621   -2.7353 H         1 <0>         0.1983
     35 H13        -4.5452   -1.5747    2.2833 H         1 <0>         0.1315
     36 H14        -6.9048   -1.0379    2.7391 H         1 <0>         0.1222
     37 H15        -8.3998   -2.7564    3.6744 H         1 <0>         0.1238
     38 H16        -7.5356   -5.0118    4.1532 H         1 <0>         0.1277
     39 H17        -5.1781   -5.5510    3.6896 H         1 <0>         0.1355
@<TRIPOS>BOND
     1    1    2 1
     2    1   24 1
     3    1   25 1
     4    1   26 1
     5    2    3 1
     6    2   27 1
     7    2   28 1
     8    3    4 1
     9    3   29 1
    10    3   30 1
    11    4    5 1
    12    4   31 1
    13    4   32 1
    14    5    6 1
    15    6    7 ar
    16    6   15 ar
    17    7    8 ar
    18    7   16 1
    19    8    9 ar
    20    8   33 1
    21    9   11 ar
    22   10   12 1
    23   11   12 1
    24   11   15 ar
    25   12   13 1
    26   13   14 2
    27   14   15 1
    28   14   34 1
    29   16   17 2
    30   16   18 1
    31   18   23 ar
    32   18   19 ar
    33   19   20 ar
    34   19   35 1
    35   20   21 ar
    36   20   36 1
    37   21   22 ar
    38   21   37 1
    39   22   23 ar
    40   22   38 1
    41   23   39 1
@<TRIPOS>MOLECULE
CHEMBL498659
   43    45     0     0     0
SMALL
USER_CHARGES

@<TRIPOS>ATOM
      1 C1         -0.0167    1.3788    0.0096 C.ar      1 <0>        -0.0354
      2 C2          1.1668    2.0946    0.0022 C.ar      1 <0>        -0.1615
      3 C3          2.3797    1.4320   -0.0134 C.ar      1 <0>         0.1675
      4 C4          2.4080    0.0333   -0.0211 C.ar      1 <0>        -0.2076
      5 C5          1.2060   -0.6828   -0.0130 C.ar      1 <0>         0.1673
      6 C6          0.0021   -0.0041    0.0020 C.ar      1 <0>        -0.1616
      7 F1          1.2222   -2.0337   -0.0208 F         1 <0>        -0.1198
      8 C7          3.6978   -0.6825   -0.0382 C.2       1 <0>         0.5724
      9 O1          4.2403   -0.9832    1.0078 O.2       1 <0>        -0.4986
     10 N1          4.2750   -1.0033   -1.2131 N.am      1 <0>        -0.6229
     11 C8          5.5015   -1.6840   -1.2294 C.2       1 <0>         0.0888
     12 C9          6.2300   -2.0947   -0.1573 C.2       1 <0>        -0.0166
     13 N2          7.3401   -2.7086   -0.6417 N.pl3     1 <0>        -0.3604
     14 H1          8.0400   -3.1007   -0.0964 H         1 <0>         0.4586
     15 N3          7.3298   -2.6955   -1.9261 N.2       1 <0>        -0.2384
     16 C10         6.2416   -2.0952   -2.3681 C.2       1 <0>        -0.0478
     17 C11         5.8667   -1.8872   -3.7794 C.2       1 <0>         0.6254
     18 O2          4.8314   -1.3123   -4.0551 O.2       1 <0>        -0.5250
     19 N4          6.6718   -2.3344   -4.7635 N.am      1 <0>        -0.7171
     20 C12         6.2995   -2.1279   -6.1652 C.3       1 <0>         0.1300
     21 H2          5.2169   -2.2008   -6.2688 H         1 <0>         0.1131
     22 C13         6.7644   -0.7410   -6.6188 C.3       1 <0>        -0.1535
     23 C14         6.4405   -0.5658   -8.1053 C.3       1 <0>        -0.1440
     24 C15         7.1056   -1.6899   -8.9026 C.3       1 <0>        -0.0109
     25 N5          6.6003   -2.9880   -8.4399 N.4       1 <0>        -0.4989
     26 C16         6.9689   -3.1947   -7.0342 C.3       1 <0>        -0.0191
     27 F2          3.5345    2.1331   -0.0215 F         1 <0>        -0.1196
     28 H3         -0.9609    1.9029    0.0260 H         1 <0>         0.1549
     29 H4          1.1430    3.1743    0.0082 H         1 <0>         0.1548
     30 H5         -0.9267   -0.5552    0.0082 H         1 <0>         0.1547
     31 H6          3.8423   -0.7635   -2.0475 H         1 <0>         0.4262
     32 H7          5.9743   -1.9582    0.8830 H         1 <0>         0.2126
     33 H8          7.4978   -2.7931   -4.5435 H         1 <0>         0.4161
     34 H9          6.2467    0.0241   -6.0403 H         1 <0>         0.1012
     35 H10         7.8398   -0.6493   -6.4668 H         1 <0>         0.0864
     36 H11         5.3609   -0.6066   -8.2499 H         1 <0>         0.0926
     37 H12         6.8184    0.3971   -8.4491 H         1 <0>         0.1178
     38 H13         6.8773   -1.5680   -9.9614 H         1 <0>         0.1381
     39 H14         8.1851   -1.6480   -8.7575 H         1 <0>         0.1327
     40 H15         5.5955   -3.0077   -8.5288 H         1 <0>         0.4309
     41 H16         8.0514   -3.1216   -6.9291 H         1 <0>         0.1382
     42 H17         6.6396   -4.1831   -6.7136 H         1 <0>         0.1414
     43 H18         7.0002   -3.7235   -9.0031 H         1 <0>         0.4371
@<TRIPOS>BOND
     1    1    6 ar
     2    1    2 ar
     3    1   28 1
     4    2    3 ar
     5    2   29 1
     6    3    4 ar
     7    3   27 1
     8    4    5 ar
     9    4    8 1
    10    5    6 ar
    11    5    7 1
    12    6   30 1
    13    8    9 2
    14    8   10 am
    15   10   11 1
    16   10   31 1
    17   11   16 1
    18   11   12 2
    19   12   13 1
    20   12   32 1
    21   13   14 1
    22   13   15 1
    23   15   16 2
    24   16   17 1
    25   17   18 2
    26   17   19 am
    27   19   20 1
    28   19   33 1
    29   20   21 1
    30   20   26 1
    31   20   22 1
    32   22   23 1
    33   22   34 1
    34   22   35 1
    35   23   24 1
    36   23   36 1
    37   23   37 1
    38   24   25 1
    39   24   38 1
    40   24   39 1
    41   25   26 1
    42   25   40 1
    43   25   43 1
    44   26   41 1
    45   26   42 1
@<TRIPOS>MOLECULE
CHEMBL498659
   43    45     0     0     0
SMALL
USER_CHARGES

@<TRIPOS>ATOM
      1 C1         -0.0167    1.3789    0.0096 C.ar      1 <0>        -0.0345
      2 C2          1.1667    2.0947    0.0022 C.ar      1 <0>        -0.1613
      3 C3          2.3797    1.4322   -0.0129 C.ar      1 <0>         0.1683
      4 C4          2.4080    0.0333   -0.0207 C.ar      1 <0>        -0.2097
      5 C5          1.2060   -0.6828   -0.0130 C.ar      1 <0>         0.1681
      6 C6          0.0021   -0.0041    0.0020 C.ar      1 <0>        -0.1614
      7 F1          1.2221   -2.0337   -0.0208 F         1 <0>        -0.1194
      8 C7          3.6977   -0.6824   -0.0373 C.2       1 <0>         0.5750
      9 O1          4.2398   -0.9830    1.0089 O.2       1 <0>        -0.4845
     10 N1          4.2754   -1.0032   -1.2120 N.am      1 <0>        -0.6243
     11 C8          5.4958   -1.6804   -1.2277 C.2       1 <0>         0.1422
     12 C9          6.2525   -2.1007   -0.1222 C.2       1 <0>         0.0059
     13 N2          7.3253   -2.6959   -0.5729 N.2       1 <0>        -0.2279
     14 H1          8.0483   -3.0965   -2.4007 H         1 <0>         0.4467
     15 N3          7.3460   -2.7070   -1.8567 N.pl3     1 <0>        -0.3759
     16 C10         6.2215   -2.0898   -2.3424 C.2       1 <0>        -0.1071
     17 C11         5.8594   -1.8973   -3.7498 C.2       1 <0>         0.6144
     18 O2          4.8250   -1.3252   -4.0392 O.2       1 <0>        -0.5178
     19 N4          6.6720   -2.3540   -4.7232 N.am      1 <0>        -0.7279
     20 C12         6.3101   -2.1617   -6.1298 C.3       1 <0>         0.1312
     21 H2          5.2283   -2.2361   -6.2407 H         1 <0>         0.1152
     22 C13         6.7778   -0.7792   -6.5937 C.3       1 <0>        -0.1535
     23 C14         6.4650   -0.6190   -8.0842 C.3       1 <0>        -0.1442
     24 C15         7.1365   -1.7507   -8.8652 C.3       1 <0>        -0.0112
     25 N5          6.6282   -3.0444   -8.3934 N.4       1 <0>        -0.4989
     26 C16         6.9864   -3.2369   -6.9830 C.3       1 <0>        -0.0196
     27 F2          3.5345    2.1332   -0.0206 F         1 <0>        -0.1191
     28 H3         -0.9609    1.9029    0.0260 H         1 <0>         0.1552
     29 H4          1.1430    3.1744    0.0078 H         1 <0>         0.1552
     30 H5         -0.9267   -0.5552    0.0082 H         1 <0>         0.1551
     31 H6          3.8430   -0.7634   -2.0465 H         1 <0>         0.4257
     32 H7          5.9942   -1.9571    0.9165 H         1 <0>         0.2144
     33 H8          7.4964   -2.8101   -4.4926 H         1 <0>         0.4043
     34 H9          6.2556   -0.0085   -6.0268 H         1 <0>         0.1019
     35 H10         7.8520   -0.6855   -6.4346 H         1 <0>         0.0863
     36 H11         5.3866   -0.6617   -8.2365 H         1 <0>         0.0932
     37 H12         6.8451    0.3405   -8.4348 H         1 <0>         0.1189
     38 H13         6.9160   -1.6396   -9.9269 H         1 <0>         0.1392
     39 H14         8.2149   -1.7070   -8.7125 H         1 <0>         0.1330
     40 H15         5.6240   -3.0654   -8.4896 H         1 <0>         0.4316
     41 H16         8.0680   -3.1622   -6.8705 H         1 <0>         0.1378
     42 H17         6.6550   -4.2221   -6.6550 H         1 <0>         0.1414
     43 H18         7.0326   -3.7853   -8.9462 H         1 <0>         0.4379
@<TRIPOS>BOND
     1    1    6 ar
     2    1    2 ar
     3    1   28 1
     4    2    3 ar
     5    2   29 1
     6    3    4 ar
     7    3   27 1
     8    4    5 ar
     9    4    8 1
    10    5    6 ar
    11    5    7 1
    12    6   30 1
    13    8    9 2
    14    8   10 am
    15   10   31 1
    16   10   11 1
    17   11   12 1
    18   11   16 2
    19   12   13 2
    20   12   32 1
    21   13   15 1
    22   14   15 1
    23   15   16 1
    24   16   17 1
    25   17   18 2
    26   17   19 am
    27   19   20 1
    28   19   33 1
    29   20   21 1
    30   20   26 1
    31   20   22 1
    32   22   23 1
    33   22   34 1
    34   22   35 1
    35   23   24 1
    36   23   36 1
    37   23   37 1
    38   24   25 1
    39   24   38 1
    40   24   39 1
    41   25   26 1
    42   25   40 1
    43   25   43 1
    44   26   41 1
    45   26   42 1
@<TRIPOS>MOLECULE
CHEMBL245336
   52    55     0     0     0
SMALL
USER_CHARGES

@<TRIPOS>ATOM
      1 C1         -0.7081    1.6854   -0.5358 C.3       1 <0>         0.0779
      2 N1         -0.5324    0.2340   -0.4416 N.am      1 <0>        -0.7057
      3 C2          0.0863   -0.4358   -1.4341 C.2       1 <0>         0.4975
      4 O1          0.4976    0.1630   -2.4053 O.2       1 <0>        -0.5263
      5 C3          0.2670   -1.9288   -1.3372 C.3       1 <0>        -0.0311
      6 N2          0.9639   -2.4164   -2.5349 N.4       1 <0>        -0.3715
      7 C4          0.1195   -2.1949   -3.7148 C.3       1 <0>        -0.0111
      8 C5          0.8732   -2.6266   -4.9745 C.3       1 <0>        -0.1530
      9 C6          1.2246   -4.1134   -4.8682 C.3       1 <0>         0.1553
     10 C7          2.0426   -4.3447   -3.5945 C.3       1 <0>        -0.1610
     11 C8          1.2456   -3.8493   -2.3859 C.3       1 <0>        -0.0015
     12 N3          2.0123   -4.5153   -6.0361 N.pl3     1 <0>        -0.6956
     13 C9          2.0154   -5.8375   -6.4475 C.ar      1 <0>         0.5659
     14 N4          1.2953   -6.7240   -5.7754 N.ar      1 <0>        -0.5682
     15 C10         1.2706   -7.9984   -6.1364 C.ar      1 <0>         0.2094
     16 C11         2.0091   -8.4057   -7.2320 C.ar      1 <0>        -0.1958
     17 C12         2.7606   -7.4470   -7.9231 C.ar      1 <0>         0.3315
     18 N5          2.7330   -6.1818   -7.5048 N.ar      1 <0>        -0.5437
     19 C13         3.5674   -7.8313   -9.1013 C.2       1 <0>        -0.1708
     20 C14         3.1583   -8.5855  -10.1537 C.2       1 <0>         0.1222
     21 N6          4.1789   -8.7263  -11.0439 N.pl3     1 <0>        -0.5796
     22 H1          4.1253   -9.2235  -11.8751 H         1 <0>         0.4244
     23 C15         5.2992   -8.0604  -10.5945 C.ar      1 <0>         0.0899
     24 C16         4.9691   -7.4655   -9.3650 C.ar      1 <0>        -0.0679
     25 C17         5.9192   -6.7144   -8.6758 C.ar      1 <0>        -0.0703
     26 C18         7.1798   -6.5560   -9.2076 C.ar      1 <0>        -0.1362
     27 C19         7.5058   -7.1400  -10.4233 C.ar      1 <0>        -0.0971
     28 C20         6.5795   -7.8928  -11.1117 C.ar      1 <0>        -0.1215
     29 Cl1         2.0054  -10.0661   -7.7387 Cl        1 <0>        -0.0327
     30 H2          0.2678    2.1655   -0.6091 H         1 <0>         0.0731
     31 H3         -1.2975    1.9232   -1.4213 H         1 <0>         0.0730
     32 H4         -1.2252    2.0472    0.3528 H         1 <0>         0.0918
     33 H5         -0.8613   -0.2450    0.3351 H         1 <0>         0.4134
     34 H6          0.8564   -2.1667   -0.4517 H         1 <0>         0.1615
     35 H7         -0.7088   -2.4089   -1.2639 H         1 <0>         0.1608
     36 H8         -0.7956   -2.7797   -3.6211 H         1 <0>         0.1299
     37 H9         -0.1324   -1.1369   -3.7873 H         1 <0>         0.1519
     38 H10         0.2439   -2.4630   -5.8493 H         1 <0>         0.1199
     39 H11         1.7884   -2.0422   -5.0693 H         1 <0>         0.0961
     40 H12         0.3083   -4.7022   -4.8249 H         1 <0>         0.1093
     41 H13         2.2492   -5.4091   -3.4828 H         1 <0>         0.1193
     42 H14         2.9821   -3.7959   -3.6606 H         1 <0>         0.0906
     43 H15         1.8251   -4.0126   -1.4773 H         1 <0>         0.1355
     44 H16         0.3065   -4.3988   -2.3205 H         1 <0>         0.1355
     45 H17         2.5318   -3.8553   -6.5213 H         1 <0>         0.4201
     46 H18         0.6801   -8.7117   -5.5805 H         1 <0>         0.1797
     47 H19         2.1717   -9.0101  -10.2675 H         1 <0>         0.1775
     48 H20         5.6681   -6.2584   -7.7295 H         1 <0>         0.1182
     49 H21         7.9181   -5.9742   -8.6759 H         1 <0>         0.1250
     50 H22         8.4975   -7.0090  -10.8306 H         1 <0>         0.1297
     51 H23         6.8432   -8.3413  -12.0581 H         1 <0>         0.1250
     52 H24         1.8318   -1.9139   -2.6457 H         1 <0>         0.4299
@<TRIPOS>BOND
     1    1    2 1
     2    1   30 1
     3    1   31 1
     4    1   32 1
     5    2    3 am
     6    2   33 1
     7    3    4 2
     8    3    5 1
     9    5    6 1
    10    5   34 1
    11    5   35 1
    12    6   11 1
    13    6    7 1
    14    6   52 1
    15    7    8 1
    16    7   36 1
    17    7   37 1
    18    8    9 1
    19    8   38 1
    20    8   39 1
    21    9   10 1
    22    9   12 1
    23    9   40 1
    24   10   11 1
    25   10   41 1
    26   10   42 1
    27   11   43 1
    28   11   44 1
    29   12   13 1
    30   12   45 1
    31   13   18 ar
    32   13   14 ar
    33   14   15 ar
    34   15   16 ar
    35   15   46 1
    36   16   17 ar
    37   16   29 1
    38   17   18 ar
    39   17   19 1
    40   19   24 1
    41   19   20 2
    42   20   21 1
    43   20   47 1
    44   21   22 1
    45   21   23 1
    46   23   28 ar
    47   23   24 ar
    48   24   25 ar
    49   25   26 ar
    50   25   48 1
    51   26   27 ar
    52   26   49 1
    53   27   28 ar
    54   27   50 1
    55   28   51 1
@<TRIPOS>MOLECULE
CHEMBL245336
   51    54     0     0     0
SMALL
USER_CHARGES

@<TRIPOS>ATOM
      1 C1         -0.1664    1.6648    0.9022 C.3       1 <0>         0.0876
      2 N1         -0.1302    0.2133    0.7069 N.am      1 <0>        -0.7393
      3 C2         -1.2792   -0.4898    0.6643 C.2       1 <0>         0.5106
      4 O1         -2.3432    0.0792    0.7876 O.2       1 <0>        -0.5183
      5 C3         -1.2420   -1.9829    0.4634 C.3       1 <0>         0.0361
      6 N2         -2.6132   -2.5100    0.4542 N.3       1 <0>        -0.5225
      7 C4         -3.2494   -2.3446    1.7673 C.3       1 <0>         0.0562
      8 C5         -4.7173   -2.7690    1.6815 C.3       1 <0>        -0.1218
      9 C6         -4.7953   -4.2320    1.2363 C.3       1 <0>         0.1601
     10 C7         -4.0834   -4.3862   -0.1105 C.3       1 <0>        -0.1244
     11 C8         -2.6340   -3.9149    0.0273 C.3       1 <0>         0.0605
     12 N3         -6.1992   -4.6268    1.0961 N.pl3     1 <0>        -0.6879
     13 C9         -6.5592   -5.9585    1.2164 C.ar      1 <0>         0.5738
     14 N4         -5.6207   -6.8607    1.4638 N.ar      1 <0>        -0.5616
     15 C10        -5.9233   -8.1446    1.5865 C.ar      1 <0>         0.2118
     16 C11        -7.2399   -8.5452    1.4536 C.ar      1 <0>        -0.2075
     17 C12        -8.2103   -7.5698    1.1923 C.ar      1 <0>         0.3238
     18 N5         -7.8322   -6.2960    1.0866 N.ar      1 <0>        -0.5503
     19 C13        -9.6324   -7.9463    1.0416 C.2       1 <0>        -0.1569
     20 C14       -10.3506   -8.7505    1.8669 C.2       1 <0>         0.1132
     21 N6        -11.6259   -8.8647    1.4037 N.pl3     1 <0>        -0.5831
     22 H1        -12.3248   -9.3879    1.8265 H         1 <0>         0.4216
     23 C15       -11.7812   -8.1297    0.2478 C.ar      1 <0>         0.0900
     24 C16       -10.5474   -7.5171   -0.0293 C.ar      1 <0>        -0.0688
     25 C17       -10.4103   -6.6988   -1.1488 C.ar      1 <0>        -0.0650
     26 C18       -11.4903   -6.4917   -1.9783 C.ar      1 <0>        -0.1400
     27 C19       -12.7101   -7.0931   -1.7037 C.ar      1 <0>        -0.0981
     28 C20       -12.8580   -7.9119   -0.6054 C.ar      1 <0>        -0.1265
     29 Cl1        -7.6797  -10.2176    1.6064 Cl        1 <0>        -0.0473
     30 H2          0.8510    2.0559    0.9090 H         1 <0>         0.0756
     31 H3         -0.7278    2.1267    0.0901 H         1 <0>         0.0605
     32 H4         -0.6492    1.8916    1.8527 H         1 <0>         0.0594
     33 H5          0.7208   -0.2418    0.6083 H         1 <0>         0.4017
     34 H6         -0.7592   -2.2097   -0.4871 H         1 <0>         0.1062
     35 H7         -0.6806   -2.4449    1.2755 H         1 <0>         0.0653
     36 H8         -2.7344   -2.9647    2.5011 H         1 <0>         0.0322
     37 H9         -3.1907   -1.2992    2.0702 H         1 <0>         0.0987
     38 H10        -5.1851   -2.6609    2.6600 H         1 <0>         0.0742
     39 H11        -5.2361   -2.1403    0.9579 H         1 <0>         0.0806
     40 H12        -4.3104   -4.8652    1.9793 H         1 <0>         0.0903
     41 H13        -4.0985   -5.4335   -0.4123 H         1 <0>         0.0742
     42 H14        -4.5923   -3.7829   -0.8623 H         1 <0>         0.0739
     43 H15        -2.1283   -4.0100   -0.9336 H         1 <0>         0.0798
     44 H16        -2.1219   -4.5276    0.7692 H         1 <0>         0.0393
     45 H17        -6.8764   -3.9554    0.9190 H         1 <0>         0.4155
     46 H18        -5.1496   -8.8707    1.7878 H         1 <0>         0.1753
     47 H19        -9.9678   -9.2281    2.7567 H         1 <0>         0.1765
     48 H20        -9.4621   -6.2290   -1.3649 H         1 <0>         0.1214
     49 H21       -11.3872   -5.8577   -2.8465 H         1 <0>         0.1244
     50 H22       -13.5500   -6.9235   -2.3611 H         1 <0>         0.1271
     51 H23       -13.8125   -8.3735   -0.3998 H         1 <0>         0.1220
@<TRIPOS>BOND
     1    1    2 1
     2    1   30 1
     3    1   31 1
     4    1   32 1
     5    2    3 am
     6    2   33 1
     7    3    4 2
     8    3    5 1
     9    5    6 1
    10    5   34 1
    11    5   35 1
    12    6   11 1
    13    6    7 1
    14    7    8 1
    15    7   36 1
    16    7   37 1
    17    8    9 1
    18    8   38 1
    19    8   39 1
    20    9   10 1
    21    9   12 1
    22    9   40 1
    23   10   11 1
    24   10   41 1
    25   10   42 1
    26   11   43 1
    27   11   44 1
    28   12   13 1
    29   12   45 1
    30   13   18 ar
    31   13   14 ar
    32   14   15 ar
    33   15   16 ar
    34   15   46 1
    35   16   17 ar
    36   16   29 1
    37   17   18 ar
    38   17   19 1
    39   19   24 1
    40   19   20 2
    41   20   21 1
    42   20   47 1
    43   21   22 1
    44   21   23 1
    45   23   28 ar
    46   23   24 ar
    47   24   25 ar
    48   25   26 ar
    49   25   48 1
    50   26   27 ar
    51   26   49 1
    52   27   28 ar
    53   27   50 1
    54   28   51 1
@<TRIPOS>MOLECULE
CHEMBL271953
   50    53     0     0     0
SMALL
USER_CHARGES

@<TRIPOS>ATOM
      1 C1         -0.0167    1.3776    0.0096 C.ar      1 <0>        -0.1735
      2 C2          1.1849    2.0698    0.0019 C.ar      1 <0>        -0.0554
      3 C3          2.3651    1.3426   -0.0133 C.ar      1 <0>        -0.1659
      4 C4          2.3054   -0.0383   -0.0202 C.ar      1 <0>         0.1197
      5 N1          1.1443   -0.6632   -0.0129 N.ar      1 <0>        -0.4845
      6 C5          0.0021   -0.0041    0.0020 C.ar      1 <0>         0.1075
      7 C6          3.6964    2.0488   -0.0227 C.3       1 <0>         0.1669
      8 N2          4.1412    2.2707    1.3554 N.am      1 <0>        -0.7247
      9 C7          5.3142    2.8904    1.5933 C.2       1 <0>         0.5650
     10 O1          6.0031    3.2653    0.6643 O.2       1 <0>        -0.5295
     11 C8          5.7624    3.1140    2.9820 C.ar      1 <0>        -0.1569
     12 C9          4.9743    2.6784    4.0528 C.ar      1 <0>        -0.0424
     13 C10         5.3849    2.8823    5.3495 C.ar      1 <0>        -0.1384
     14 C11         6.5928    3.5263    5.6121 C.ar      1 <0>         0.1778
     15 C12         7.3849    3.9640    4.5395 C.ar      1 <0>        -0.0826
     16 C13         6.9764    3.7553    3.2312 C.ar      1 <0>         0.0145
     17 C14         8.5828    4.5985    5.1381 C.2       1 <0>        -0.0141
     18 N3          9.5961    5.1497    4.5083 N.2       1 <0>        -0.1090
     19 N4         10.5705    5.6634    5.1796 N.pl3     1 <0>        -0.4861
     20 C15        11.6462    6.2486    4.5110 C.ar      1 <0>         0.2249
     21 C16        11.6670    6.2841    3.1217 C.ar      1 <0>        -0.1584
     22 C17        12.7331    6.8645    2.4634 C.ar      1 <0>         0.0140
     23 C18        13.7794    7.4101    3.1848 C.ar      1 <0>        -0.7006
     24 C19        13.7622    7.3766    4.5674 C.ar      1 <0>         0.0172
     25 C20        12.6970    6.8027    5.2326 C.ar      1 <0>        -0.1742
     26 S1         15.1379    8.1491    2.3405 S.o2      1 <0>         2.7046
     27 O2         16.2446    8.0997    3.2303 O.2       1 <0>        -0.9630
     28 O3         15.1757    7.5672    1.0446 O.2       1 <0>        -0.9617
     29 N5         14.7710    9.7501    2.1298 N.pl3     1 <0>        -1.2503
     30 C21         8.3895    4.4769    6.5928 C.2       1 <0>         0.5484
     31 O4          9.1540    4.8759    7.4523 O.2       1 <0>        -0.5123
     32 N6          7.2212    3.8483    6.8046 N.am      1 <0>        -0.6404
     33 H1         -0.9552    1.9117    0.0259 H         1 <0>         0.1389
     34 H2          1.2009    3.1496    0.0072 H         1 <0>         0.1376
     35 H3          3.2203   -0.6121   -0.0320 H         1 <0>         0.1579
     36 H4         -0.9294   -0.5505    0.0083 H         1 <0>         0.1587
     37 H5          4.4293    1.4355   -0.5468 H         1 <0>         0.0844
     38 H6          3.5953    3.0079   -0.5308 H         1 <0>         0.0825
     39 H7          3.5916    1.9716    2.0965 H         1 <0>         0.4009
     40 H8          4.0365    2.1787    3.8598 H         1 <0>         0.1369
     41 H9          4.7683    2.5421    6.1683 H         1 <0>         0.1409
     42 H10         7.5923    4.0904    2.4098 H         1 <0>         0.1497
     43 H11        10.5553    5.6429    6.1493 H         1 <0>         0.4132
     44 H12        10.8505    5.8579    2.5577 H         1 <0>         0.1511
     45 H13        12.7501    6.8921    1.3839 H         1 <0>         0.1524
     46 H14        14.5810    7.8037    5.1274 H         1 <0>         0.1528
     47 H15        12.6822    6.7809    6.3123 H         1 <0>         0.1423
     48 H16        13.9280   10.1016    2.4564 H         1 <0>         0.4169
     49 H17        15.3991   10.3365    1.6798 H         1 <0>         0.4216
     50 H18         6.8624    3.6451    7.6826 H         1 <0>         0.4249
@<TRIPOS>BOND
     1    1    6 ar
     2    1    2 ar
     3    1   33 1
     4    2    3 ar
     5    2   34 1
     6    3    4 ar
     7    3    7 1
     8    4    5 ar
     9    4   35 1
    10    5    6 ar
    11    6   36 1
    12    7    8 1
    13    7   37 1
    14    7   38 1
    15    8    9 am
    16    8   39 1
    17    9   10 2
    18    9   11 1
    19   11   16 ar
    20   11   12 ar
    21   12   13 ar
    22   12   40 1
    23   13   14 ar
    24   13   41 1
    25   14   32 1
    26   14   15 ar
    27   15   16 ar
    28   15   17 1
    29   16   42 1
    30   17   18 2
    31   17   30 1
    32   18   19 1
    33   19   20 1
    34   19   43 1
    35   20   25 ar
    36   20   21 ar
    37   21   22 ar
    38   21   44 1
    39   22   23 ar
    40   22   45 1
    41   23   24 ar
    42   23   26 1
    43   24   25 ar
    44   24   46 1
    45   25   47 1
    46   26   27 2
    47   26   28 2
    48   26   29 1
    49   29   48 1
    50   29   49 1
    51   30   31 2
    52   30   32 am
    53   32   50 1
@<TRIPOS>MOLECULE
CHEMBL189455
   37    41     0     0     0
SMALL
USER_CHARGES

@<TRIPOS>ATOM
      1 C1          0.0828    1.4557   -1.0778 C.2       1 <0>        -0.1575
      2 C2          1.2278    2.1369   -0.7816 C.2       1 <0>        -0.0255
      3 C3          2.4227    1.4236   -0.6224 C.2       1 <0>         0.0981
      4 C4          3.7407    1.8033   -0.3244 C.2       1 <0>        -0.1976
      5 C5          4.5082    0.6349   -0.2973 C.2       1 <0>         0.0989
      6 N1          3.7305   -0.3903   -0.5574 N.2       1 <0>        -0.2500
      7 N2          2.4225    0.0602   -0.7659 N.pl3     1 <0>        -0.1750
      8 N3          1.2278   -0.6032   -1.0696 N.2       1 <0>        -0.2134
      9 C6          0.1133    0.0650   -1.2182 C.2       1 <0>         0.1194
     10 C7          4.2256    3.1781   -0.0852 C.ar      1 <0>         0.3110
     11 C8          5.5766    3.4170    0.1985 C.ar      1 <0>        -0.2740
     12 C9          5.9829    4.7190    0.4149 C.ar      1 <0>         0.1966
     13 N4          5.0909    5.6966    0.3487 N.ar      1 <0>        -0.5646
     14 C10         3.8185    5.4435    0.0786 C.ar      1 <0>         0.5697
     15 N5          3.3857    4.2118   -0.1412 N.ar      1 <0>        -0.5721
     16 N6          2.9193    6.4952    0.0189 N.pl3     1 <0>        -0.6379
     17 C11         3.3766    7.8143    0.1269 C.ar      1 <0>         0.1781
     18 C12         4.5658    8.1893   -0.4843 C.ar      1 <0>        -0.0978
     19 C13         5.0182    9.4906   -0.3785 C.ar      1 <0>        -0.0787
     20 C14         4.2870   10.4250    0.3370 C.ar      1 <0>         0.0160
     21 C15         3.0937   10.0521    0.9508 C.ar      1 <0>         0.0528
     22 C16         2.6384    8.7487    0.8403 C.ar      1 <0>        -0.1274
     23 O1          2.5704   11.1415    1.5856 O.3       1 <0>        -0.3084
     24 C17         3.6568   12.0796    1.6986 C.3       1 <0>         0.2139
     25 O2          4.5110   11.7491    0.5877 O.3       1 <0>        -0.3082
     26 H1         -0.8476    1.9904   -1.1993 H         1 <0>         0.1611
     27 H2          1.2128    3.2112   -0.6718 H         1 <0>         0.1704
     28 H3          5.5680    0.5841   -0.0955 H         1 <0>         0.2095
     29 H4         -0.7977   -0.4658   -1.4523 H         1 <0>         0.2092
     30 H5          6.2837    2.6020    0.2470 H         1 <0>         0.1479
     31 H6          7.0170    4.9380    0.6363 H         1 <0>         0.1730
     32 H7          1.9728    6.3181   -0.0978 H         1 <0>         0.4240
     33 H8          5.1378    7.4630   -1.0426 H         1 <0>         0.1433
     34 H9          5.9437    9.7799   -0.8541 H         1 <0>         0.1396
     35 H10         1.7112    8.4586    1.3121 H         1 <0>         0.1379
     36 H11         3.2905   13.1023    1.6091 H         1 <0>         0.1326
     37 H12         4.1850   11.9421    2.6421 H         1 <0>         0.0853
@<TRIPOS>BOND
     1    1    9 1
     2    1    2 2
     3    1   26 1
     4    2    3 1
     5    2   27 1
     6    3    7 1
     7    3    4 2
     8    4    5 1
     9    4   10 1
    10    5    6 2
    11    5   28 1
    12    6    7 1
    13    7    8 1
    14    8    9 2
    15    9   29 1
    16   10   15 ar
    17   10   11 ar
    18   11   12 ar
    19   11   30 1
    20   12   13 ar
    21   12   31 1
    22   13   14 ar
    23   14   15 ar
    24   14   16 1
    25   16   17 1
    26   16   32 1
    27   17   22 ar
    28   17   18 ar
    29   18   19 ar
    30   18   33 1
    31   19   20 ar
    32   19   34 1
    33   20   25 1
    34   20   21 ar
    35   21   22 ar
    36   21   23 1
    37   22   35 1
    38   23   24 1
    39   24   25 1
    40   24   36 1
    41   24   37 1
@<TRIPOS>MOLECULE
CHEMBL514197
   61    66     0     0     0
SMALL
USER_CHARGES

@<TRIPOS>ATOM
      1 C1         -0.0178    1.4648    0.0101 C.3       1 <0>        -0.0469
      2 N1          0.0021   -0.0041    0.0020 N.4       1 <0>        -0.3807
      3 C2         -1.3762   -0.5105    0.0016 C.3       1 <0>        -0.0251
      4 C3         -1.3581   -2.0376   -0.1225 C.3       1 <0>         0.1240
      5 N2         -0.5114   -2.5826    0.9500 N.pl3     1 <0>        -0.6672
      6 C4          0.8341   -2.0147    1.1271 C.3       1 <0>         0.1239
      7 C5          0.7126   -0.4887    1.1922 C.3       1 <0>        -0.0248
      8 C6         -0.9719   -3.6095    1.7766 C.ar      1 <0>         0.1959
      9 C7         -0.7546   -4.9308    1.4307 C.ar      1 <0>        -0.1142
     10 C8         -1.2096   -5.9548    2.2476 C.ar      1 <0>        -0.0903
     11 C9         -1.8854   -5.6714    3.4161 C.ar      1 <0>        -0.0980
     12 C10        -2.1147   -4.3518    3.7831 C.ar      1 <0>         0.0637
     13 C11        -1.6531   -3.3060    2.9667 C.ar      1 <0>         0.0481
     14 N3         -2.0061   -2.1425    3.5654 N.2       1 <0>        -0.4648
     15 C12        -2.6408   -2.3976    4.6839 C.2       1 <0>         0.3681
     16 N4         -2.7418   -3.7534    4.8592 N.pl3     1 <0>        -0.5809
     17 H1         -3.1647   -4.2076    5.6047 H         1 <0>         0.4338
     18 C13        -3.1771   -1.3788    5.6082 C.2       1 <0>         0.1477
     19 C14        -3.0996    0.0767    5.4348 C.ar      1 <0>        -0.1391
     20 C15        -2.5535    0.9042    4.4492 C.ar      1 <0>        -0.0297
     21 C16        -2.6415    2.2585    4.5718 C.ar      1 <0>        -0.1455
     22 C17        -3.2761    2.8312    5.6807 C.ar      1 <0>         0.0154
     23 C18        -3.8235    2.0254    6.6690 C.ar      1 <0>        -0.1261
     24 C19        -3.7400    0.6417    6.5530 C.ar      1 <0>         0.1360
     25 N5         -4.1689   -0.3998    7.3375 N.pl3     1 <0>        -0.4850
     26 H2         -4.6455   -0.3105    8.1775 H         1 <0>         0.4509
     27 N6         -3.8153   -1.6099    6.7324 N.2       1 <0>        -0.2167
     28 C20        -3.3634    4.3070    5.8000 C.ar      1 <0>        -0.0273
     29 C21        -3.9890    4.8822    6.9048 C.ar      1 <0>        -0.1226
     30 C22        -4.0694    6.2553    7.0155 C.ar      1 <0>        -0.1031
     31 C23        -3.5286    7.0659    6.0289 C.ar      1 <0>         0.0886
     32 C24        -2.9028    6.4968    4.9227 C.ar      1 <0>         0.1041
     33 C25        -2.8147    5.1209    4.8104 C.ar      1 <0>        -0.1802
     34 O1         -2.3738    7.2935    3.9558 O.3       1 <0>        -0.3035
     35 C26        -1.7467    6.6417    2.8494 C.3       1 <0>         0.0247
     36 O2         -3.6098    8.4185    6.1415 O.3       1 <0>        -0.4847
     37 H3          1.0047    1.8421    0.0024 H         1 <0>         0.1229
     38 H4         -0.5450    1.8259   -0.8730 H         1 <0>         0.1230
     39 H5         -0.5280    1.8163    0.9069 H         1 <0>         0.1201
     40 H6         -1.8678   -0.2272    0.9323 H         1 <0>         0.1342
     41 H7         -1.9199   -0.0838   -0.8413 H         1 <0>         0.1339
     42 H8         -2.3718   -2.4253   -0.0215 H         1 <0>         0.1130
     43 H9         -0.9491   -2.3215   -1.0921 H         1 <0>         0.0785
     44 H10         1.2698   -2.3873    2.0542 H         1 <0>         0.1130
     45 H11         1.4645   -2.2963    0.2836 H         1 <0>         0.0784
     46 H12         1.7080   -0.0460    1.2266 H         1 <0>         0.1339
     47 H13         0.1578   -0.2061    2.0868 H         1 <0>         0.1343
     48 H14        -0.2274   -5.1667    0.5181 H         1 <0>         0.1351
     49 H15        -1.0336   -6.9826    1.9664 H         1 <0>         0.1406
     50 H16        -2.2365   -6.4758    4.0455 H         1 <0>         0.1322
     51 H17        -2.0617    0.4703    3.5912 H         1 <0>         0.1327
     52 H18        -2.2184    2.8946    3.8084 H         1 <0>         0.1279
     53 H19        -4.3118    2.4701    7.5235 H         1 <0>         0.1390
     54 H20        -4.4113    4.2530    7.6743 H         1 <0>         0.1340
     55 H21        -4.5548    6.6996    7.8719 H         1 <0>         0.1433
     56 H22        -2.3254    4.6781    3.9555 H         1 <0>         0.1350
     57 H23        -0.9197    6.0296    3.2094 H         1 <0>         0.0539
     58 H24        -2.4736    6.0079    2.3414 H         1 <0>         0.0545
     59 H25        -1.3684    7.3904    2.1534 H         1 <0>         0.1037
     60 H26        -2.8624    8.8201    6.6053 H         1 <0>         0.3923
     61 H27         0.4772   -0.3282   -0.8270 H         1 <0>         0.4223
@<TRIPOS>BOND
     1    1    2 1
     2    1   37 1
     3    1   38 1
     4    1   39 1
     5    2    7 1
     6    2    3 1
     7    2   61 1
     8    3    4 1
     9    3   40 1
    10    3   41 1
    11    4    5 1
    12    4   42 1
    13    4   43 1
    14    5    6 1
    15    5    8 1
    16    6    7 1
    17    6   44 1
    18    6   45 1
    19    7   46 1
    20    7   47 1
    21    8   13 ar
    22    8    9 ar
    23    9   10 ar
    24    9   48 1
    25   10   11 ar
    26   10   49 1
    27   11   12 ar
    28   11   50 1
    29   12   16 1
    30   12   13 ar
    31   13   14 1
    32   14   15 2
    33   15   16 1
    34   15   18 1
    35   16   17 1
    36   18   27 2
    37   18   19 1
    38   19   24 ar
    39   19   20 ar
    40   20   21 ar
    41   20   51 1
    42   21   22 ar
    43   21   52 1
    44   22   23 ar
    45   22   28 1
    46   23   24 ar
    47   23   53 1
    48   24   25 1
    49   25   26 1
    50   25   27 1
    51   28   33 ar
    52   28   29 ar
    53   29   30 ar
    54   29   54 1
    55   30   31 ar
    56   30   55 1
    57   31   32 ar
    58   31   36 1
    59   32   33 ar
    60   32   34 1
    61   33   56 1
    62   34   35 1
    63   35   57 1
    64   35   58 1
    65   35   59 1
    66   36   60 1
@<TRIPOS>MOLECULE
CHEMBL514197
   61    66     0     0     0
SMALL
USER_CHARGES

@<TRIPOS>ATOM
      1 C1         -0.0178    1.4648    0.0101 C.3       1 <0>        -0.0478
      2 N1          0.0021   -0.0041    0.0020 N.4       1 <0>        -0.3814
      3 C2         -1.3762   -0.5105    0.0016 C.3       1 <0>        -0.0254
      4 C3         -1.3581   -2.0376   -0.1225 C.3       1 <0>         0.1164
      5 N2         -0.5114   -2.5826    0.9500 N.pl3     1 <0>        -0.6754
      6 C4          0.8341   -2.0147    1.1271 C.3       1 <0>         0.1163
      7 C5          0.7126   -0.4887    1.1922 C.3       1 <0>        -0.0252
      8 C6         -0.9722   -3.6116    1.7773 C.ar      1 <0>         0.1448
      9 C7         -0.7532   -4.9345    1.4294 C.ar      1 <0>        -0.0830
     10 C8         -1.2080   -5.9591    2.2462 C.ar      1 <0>        -0.1207
     11 C9         -1.8824   -5.6783    3.4123 C.ar      1 <0>        -0.0439
     12 C10        -2.1136   -4.3477    3.7821 C.ar      1 <0>         0.0586
     13 C11        -1.6484   -3.3104    2.9577 C.ar      1 <0>         0.0563
     14 N3         -2.0155   -2.1293    3.5777 N.pl3     1 <0>        -0.5864
     15 C12        -2.6700   -2.4656    4.7319 C.2       1 <0>         0.3654
     16 N4         -2.7311   -3.7714    4.8420 N.2       1 <0>        -0.4489
     17 C13        -3.2326   -1.5039    5.7007 C.2       1 <0>         0.1530
     18 C14        -3.9329   -1.8372    6.9469 C.ar      1 <0>        -0.1417
     19 C15        -4.2696   -3.0406    7.5736 C.ar      1 <0>        -0.0253
     20 C16        -4.9409   -3.0263    8.7594 C.ar      1 <0>        -0.1402
     21 C17        -5.2980   -1.8121    9.3584 C.ar      1 <0>         0.0202
     22 C18        -4.9721   -0.6079    8.7508 C.ar      1 <0>        -0.1339
     23 C19        -4.2869   -0.6114    7.5402 C.ar      1 <0>         0.1348
     24 N5         -3.8316    0.3819    6.7094 N.pl3     1 <0>        -0.4886
     25 H1         -3.9333    1.3340    6.8645 H         1 <0>         0.4480
     26 N6         -3.1926   -0.1947    5.6072 N.2       1 <0>        -0.2354
     27 C20        -6.0289   -1.8132   10.6489 C.ar      1 <0>        -0.0273
     28 C21        -6.3918   -0.6073   11.2465 C.ar      1 <0>        -0.1246
     29 C22        -7.0723   -0.6090   12.4470 C.ar      1 <0>        -0.1053
     30 C23        -7.3962   -1.8090   13.0618 C.ar      1 <0>         0.0866
     31 C24        -7.0362   -3.0167   12.4694 C.ar      1 <0>         0.1067
     32 C25        -6.3591   -3.0201   11.2631 C.ar      1 <0>        -0.1786
     33 O1         -7.3544   -4.1925   13.0741 O.3       1 <0>        -0.3045
     34 C26        -6.9540   -5.3928   12.4100 C.3       1 <0>         0.0221
     35 O2         -8.0659   -1.8064   14.2451 O.3       1 <0>        -0.4850
     36 H2          1.0047    1.8421    0.0024 H         1 <0>         0.1254
     37 H3         -0.5450    1.8259   -0.8730 H         1 <0>         0.1254
     38 H4         -0.5280    1.8163    0.9069 H         1 <0>         0.1199
     39 H5         -1.8678   -0.2272    0.9323 H         1 <0>         0.1230
     40 H6         -1.9199   -0.0838   -0.8413 H         1 <0>         0.1399
     41 H7         -2.3718   -2.4253   -0.0215 H         1 <0>         0.1162
     42 H8         -0.9491   -2.3215   -1.0921 H         1 <0>         0.0838
     43 H9          1.2698   -2.3873    2.0542 H         1 <0>         0.1163
     44 H10         1.4645   -2.2963    0.2836 H         1 <0>         0.0838
     45 H11         1.7080   -0.0460    1.2266 H         1 <0>         0.1399
     46 H12         0.1578   -0.2061    2.0868 H         1 <0>         0.1230
     47 H13        -0.2256   -5.1695    0.5168 H         1 <0>         0.1354
     48 H14        -1.0316   -6.9866    1.9643 H         1 <0>         0.1410
     49 H15        -2.2333   -6.4831    4.0413 H         1 <0>         0.1408
     50 H16        -3.9980   -3.9814    7.1178 H         1 <0>         0.1453
     51 H17        -5.1996   -3.9580    9.2404 H         1 <0>         0.1345
     52 H18        -5.2492    0.3270    9.2151 H         1 <0>         0.1374
     53 H19        -6.1400    0.3286   10.7700 H         1 <0>         0.1323
     54 H20        -7.3528    0.3262   12.9088 H         1 <0>         0.1416
     55 H21        -6.0831   -3.9560   10.8002 H         1 <0>         0.1394
     56 H22        -5.8694   -5.4034   12.3013 H         1 <0>         0.0576
     57 H23        -7.2687   -6.2554   12.9973 H         1 <0>         0.1051
     58 H24        -7.4183   -5.4351   11.4247 H         1 <0>         0.0572
     59 H25        -9.0284   -1.8211   14.1523 H         1 <0>         0.3911
     60 H26         0.4772   -0.3282   -0.8270 H         1 <0>         0.4260
     61 H27        -1.8411   -1.2313    3.2553 H         1 <0>         0.4181
@<TRIPOS>BOND
     1    1    2 1
     2    1   36 1
     3    1   37 1
     4    1   38 1
     5    2    7 1
     6    2    3 1
     7    2   60 1
     8    3    4 1
     9    3   39 1
    10    3   40 1
    11    4    5 1
    12    4   41 1
    13    4   42 1
    14    5    6 1
    15    5    8 1
    16    6    7 1
    17    6   43 1
    18    6   44 1
    19    7   45 1
    20    7   46 1
    21    8   13 ar
    22    8    9 ar
    23    9   10 ar
    24    9   47 1
    25   10   11 ar
    26   10   48 1
    27   11   12 ar
    28   11   49 1
    29   12   16 1
    30   12   13 ar
    31   13   14 1
    32   14   15 1
    33   14   61 1
    34   15   16 2
    35   15   17 1
    36   17   26 2
    37   17   18 1
    38   18   23 ar
    39   18   19 ar
    40   19   20 ar
    41   19   50 1
    42   20   21 ar
    43   20   51 1
    44   21   22 ar
    45   21   27 1
    46   22   23 ar
    47   22   52 1
    48   23   24 1
    49   24   25 1
    50   24   26 1
    51   27   32 ar
    52   27   28 ar
    53   28   29 ar
    54   28   53 1
    55   29   30 ar
    56   29   54 1
    57   30   31 ar
    58   30   35 1
    59   31   32 ar
    60   31   33 1
    61   32   55 1
    62   33   34 1
    63   34   56 1
    64   34   57 1
    65   34   58 1
    66   35   59 1
@<TRIPOS>MOLECULE
CHEMBL148580
   60    64     0     0     0
SMALL
USER_CHARGES

@<TRIPOS>ATOM
      1 C1          0.1540    1.6592    0.7054 C.3       1 <0>         0.0231
      2 O1          0.1515    0.2327    0.6211 O.3       1 <0>        -0.3112
      3 C2          0.7839   -0.4446    1.6137 C.ar      1 <0>         0.1544
      4 C3          1.3899    0.2531    2.6514 C.ar      1 <0>        -0.2101
      5 C4          2.0321   -0.4299    3.6605 C.ar      1 <0>        -0.0501
      6 C5          2.0737   -1.8268    3.6397 C.ar      1 <0>        -0.1059
      7 C6          1.4629   -2.5245    2.5940 C.ar      1 <0>        -0.0250
      8 C7          0.8183   -1.8335    1.5917 C.ar      1 <0>        -0.1511
      9 C8          2.7608   -2.5626    4.7180 C.2       1 <0>         0.2484
     10 C9          3.6366   -3.6279    4.5595 C.2       1 <0>        -0.3373
     11 C10         4.0605   -4.0246    5.9048 C.2       1 <0>         0.1228
     12 N1          3.4578   -3.2294    6.7537 N.2       1 <0>        -0.2298
     13 N2          2.6586   -2.3193    6.0550 N.pl3     1 <0>        -0.4633
     14 H1          2.1150   -1.6247    6.4588 H         1 <0>         0.4503
     15 C11         4.9991   -5.1649    5.7596 C.ar      1 <0>         0.0431
     16 C12         5.6901   -5.9166    6.7016 C.ar      1 <0>        -0.1012
     17 C13         6.5211   -6.9485    6.2980 C.ar      1 <0>        -0.0650
     18 C14         6.6726   -7.2430    4.9584 C.ar      1 <0>        -0.1221
     19 C15         5.9904   -6.5043    3.9974 C.ar      1 <0>         0.2137
     20 C16         5.1473   -5.4578    4.3928 C.ar      1 <0>        -0.1840
     21 C17         4.3145   -4.5217    3.6108 C.2       1 <0>         0.4933
     22 O2          4.2081   -4.4960    2.3990 O.2       1 <0>        -0.4467
     23 N3          6.1457   -6.8035    2.6465 N.am      1 <0>        -0.6647
     24 C18         7.3302   -7.2540    2.1879 C.2       1 <0>         0.5186
     25 O3          8.2328   -7.4853    2.9643 O.2       1 <0>        -0.5024
     26 C19         7.5333   -7.4704    0.7104 C.3       1 <0>         0.0362
     27 N4          8.8971   -7.9605    0.4701 N.3       1 <0>        -0.5190
     28 C20         9.8930   -6.9392    0.8212 C.3       1 <0>         0.0318
     29 C21        11.2968   -7.5469    0.7300 C.3       1 <0>         0.1180
     30 N5         11.4618   -8.1437   -0.6040 N.pl3     1 <0>        -0.6139
     31 C22        10.4285   -9.0746   -1.0826 C.3       1 <0>         0.1170
     32 C23         9.0588   -8.4068   -0.9200 C.3       1 <0>         0.0343
     33 C24        12.5477   -7.8415   -1.3790 C.cat     1 <0>         0.7487
     34 N6         12.4162   -7.7441   -2.7008 N.pl3     1 <0>        -0.7901
     35 N7         13.7366   -7.6447   -0.8117 N.pl3     1 <0>        -0.7857
     36 H2          1.1820    2.0217    0.6985 H         1 <0>         0.0591
     37 H3         -0.3834    2.0745   -0.1472 H         1 <0>         0.1059
     38 H4         -0.3345    1.9695    1.6290 H         1 <0>         0.0600
     39 H5          1.3575    1.3325    2.6665 H         1 <0>         0.1379
     40 H6          2.5031    0.1132    4.4665 H         1 <0>         0.1294
     41 H7          1.4927   -3.6039    2.5739 H         1 <0>         0.1373
     42 H8          0.3422   -2.3720    0.7856 H         1 <0>         0.1414
     43 H9          5.5793   -5.6951    7.7528 H         1 <0>         0.1407
     44 H10         7.0549   -7.5270    7.0374 H         1 <0>         0.1439
     45 H11         7.3235   -8.0497    4.6550 H         1 <0>         0.1558
     46 H12         5.4013   -6.6877    2.0354 H         1 <0>         0.4216
     47 H13         6.8141   -8.2052    0.3486 H         1 <0>         0.1199
     48 H14         7.3873   -6.5284    0.1818 H         1 <0>         0.0790
     49 H15         9.8138   -6.1009    0.1290 H         1 <0>         0.0448
     50 H16         9.7131   -6.5901    1.8380 H         1 <0>         0.1228
     51 H17        12.0437   -6.7667    0.8771 H         1 <0>         0.0963
     52 H18        11.4127   -8.3170    1.4926 H         1 <0>         0.1070
     53 H19        10.6013   -9.3045   -2.1339 H         1 <0>         0.0954
     54 H20        10.4609   -9.9916   -0.4942 H         1 <0>         0.1099
     55 H21         8.2740   -9.1220   -1.1661 H         1 <0>         0.1092
     56 H22         8.9913   -7.5481   -1.5879 H         1 <0>         0.0508
     57 H23        11.5675   -7.9548   -3.1206 H         1 <0>         0.4386
     58 H24        13.8493   -7.7886    0.1409 H         1 <0>         0.4422
     59 H25        14.4898   -7.3574   -1.3512 H         1 <0>         0.4378
     60 H26        13.1691   -7.4625   -3.2437 H         1 <0>         0.4383
@<TRIPOS>BOND
     1    1    2 1
     2    1   36 1
     3    1   37 1
     4    1   38 1
     5    2    3 1
     6    3    8 ar
     7    3    4 ar
     8    4    5 ar
     9    4   39 1
    10    5    6 ar
    11    5   40 1
    12    6    7 ar
    13    6    9 1
    14    7    8 ar
    15    7   41 1
    16    8   42 1
    17    9   13 1
    18    9   10 2
    19   10   21 1
    20   10   11 1
    21   11   12 2
    22   11   15 1
    23   12   13 1
    24   13   14 1
    25   15   20 ar
    26   15   16 ar
    27   16   17 ar
    28   16   43 1
    29   17   18 ar
    30   17   44 1
    31   18   19 ar
    32   18   45 1
    33   19   20 ar
    34   19   23 1
    35   20   21 1
    36   21   22 2
    37   23   24 am
    38   23   46 1
    39   24   25 2
    40   24   26 1
    41   26   27 1
    42   26   47 1
    43   26   48 1
    44   27   32 1
    45   27   28 1
    46   28   29 1
    47   28   49 1
    48   28   50 1
    49   29   30 1
    50   29   51 1
    51   29   52 1
    52   30   31 1
    53   30   33 1
    54   31   32 1
    55   31   53 1
    56   31   54 1
    57   32   55 1
    58   32   56 1
    59   33   34 2
    60   33   35 1
    61   34   57 1
    62   34   60 1
    63   35   58 1
    64   35   59 1
@<TRIPOS>MOLECULE
CHEMBL148580
   60    64     0     0     0
SMALL
USER_CHARGES

@<TRIPOS>ATOM
      1 C1         -0.5947    1.4892    0.4003 C.3       1 <0>         0.0241
      2 O1         -0.5246    0.0621    0.3775 O.3       1 <0>        -0.3145
      3 C2         -1.7027   -0.6126    0.3290 C.ar      1 <0>         0.1468
      4 C3         -2.9014    0.0877    0.2981 C.ar      1 <0>        -0.2124
      5 C4         -4.0987   -0.5940    0.2483 C.ar      1 <0>        -0.0402
      6 C5         -4.1051   -1.9885    0.2291 C.ar      1 <0>        -0.0766
      7 C6         -2.8995   -2.6889    0.2603 C.ar      1 <0>        -0.0355
      8 C7         -1.7054   -2.0010    0.3047 C.ar      1 <0>        -0.1542
      9 C8         -5.3903   -2.7246    0.1762 C.2       1 <0>         0.2035
     10 C9         -5.6253   -3.9428   -0.5049 C.2       1 <0>        -0.3150
     11 C10        -6.9559   -4.2814   -0.2973 C.2       1 <0>         0.1544
     12 N1         -7.5005   -3.3146    0.4725 N.pl3     1 <0>        -0.4212
     13 N2         -6.5147   -2.3640    0.7593 N.2       1 <0>        -0.2667
     14 H1         -8.4206   -3.2858    0.7783 H         1 <0>         0.4485
     15 C11        -7.2418   -5.5564   -0.9982 C.ar      1 <0>         0.0125
     16 C12        -8.3964   -6.3171   -1.1081 C.ar      1 <0>        -0.1035
     17 C13        -8.3885   -7.4963   -1.8422 C.ar      1 <0>        -0.0665
     18 C14        -7.2389   -7.9240   -2.4680 C.ar      1 <0>        -0.1179
     19 C15        -6.0654   -7.1730   -2.3701 C.ar      1 <0>         0.2192
     20 C16        -6.0636   -5.9879   -1.6354 C.ar      1 <0>        -0.1846
     21 C17        -5.0097   -4.9891   -1.3463 C.2       1 <0>         0.4863
     22 O2         -3.8570   -5.0231   -1.7295 O.2       1 <0>        -0.4331
     23 N3         -4.9041   -7.6051   -3.0024 N.am      1 <0>        -0.6652
     24 C18        -4.6533   -8.9239   -3.1230 C.2       1 <0>         0.5195
     25 O3         -5.4814   -9.7339   -2.7643 O.2       1 <0>        -0.5014
     26 C19        -3.3438   -9.3918   -3.7038 C.3       1 <0>         0.0359
     27 N4         -3.3155  -10.8603   -3.7275 N.3       1 <0>        -0.5193
     28 C20        -3.3177  -11.4090   -2.3648 C.3       1 <0>         0.0317
     29 C21        -3.4706  -12.9323   -2.4313 C.3       1 <0>         0.1181
     30 N5         -2.4252  -13.4686   -3.3160 N.pl3     1 <0>        -0.6142
     31 C22        -2.2715  -12.8733   -4.6521 C.3       1 <0>         0.1170
     32 C23        -2.1658  -11.3524   -4.4982 C.3       1 <0>         0.0343
     33 C24        -1.6175  -14.4941   -2.9071 C.cat     1 <0>         0.7487
     34 N6         -0.3397  -14.5253   -3.2815 N.pl3     1 <0>        -0.7898
     35 N7         -2.1090  -15.4615   -2.1346 N.pl3     1 <0>        -0.7857
     36 H2          0.4134    1.9020    0.4389 H         1 <0>         0.1036
     37 H3         -1.0978    1.8426   -0.4998 H         1 <0>         0.0585
     38 H4         -1.1533    1.8116    1.2790 H         1 <0>         0.0588
     39 H5         -2.8957    1.1676    0.3133 H         1 <0>         0.1353
     40 H6         -5.0307   -0.0488    0.2246 H         1 <0>         0.1321
     41 H7         -2.9011   -3.7688    0.2459 H         1 <0>         0.1337
     42 H8         -0.7713   -2.5427    0.3247 H         1 <0>         0.1366
     43 H9         -9.3040   -5.9919   -0.6212 H         1 <0>         0.1379
     44 H10        -9.2917   -8.0830   -1.9225 H         1 <0>         0.1449
     45 H11        -7.2447   -8.8427   -3.0358 H         1 <0>         0.1579
     46 H12        -4.2749   -6.9574   -3.3565 H         1 <0>         0.4227
     47 H13        -3.2396   -9.0099   -4.7194 H         1 <0>         0.1206
     48 H14        -2.5218   -9.0224   -3.0906 H         1 <0>         0.0801
     49 H15        -2.3789  -11.1589   -1.8705 H         1 <0>         0.0453
     50 H16        -4.1495  -10.9841   -1.8029 H         1 <0>         0.1222
     51 H17        -3.3581  -13.3554   -1.4331 H         1 <0>         0.0965
     52 H18        -4.4530  -13.1846   -2.8304 H         1 <0>         0.1067
     53 H19        -1.3663  -13.2576   -5.1223 H         1 <0>         0.0957
     54 H20        -3.1387  -13.1200   -5.2648 H         1 <0>         0.1098
     55 H21        -2.1623  -10.8865   -5.4836 H         1 <0>         0.1094
     56 H22        -1.2431  -11.1031   -3.9742 H         1 <0>         0.0514
     57 H23         0.0012  -13.8593   -3.8989 H         1 <0>         0.4386
     58 H24        -3.0556  -15.4800   -1.9238 H         1 <0>         0.4421
     59 H25        -1.5202  -16.1474   -1.7829 H         1 <0>         0.4380
     60 H26         0.2500  -15.2140   -2.9368 H         1 <0>         0.4384
@<TRIPOS>BOND
     1    1    2 1
     2    1   36 1
     3    1   37 1
     4    1   38 1
     5    2    3 1
     6    3    8 ar
     7    3    4 ar
     8    4    5 ar
     9    4   39 1
    10    5    6 ar
    11    5   40 1
    12    6    7 ar
    13    6    9 1
    14    7    8 ar
    15    7   41 1
    16    8   42 1
    17    9   10 1
    18    9   13 2
    19   10   21 1
    20   10   11 2
    21   11   15 1
    22   11   12 1
    23   12   14 1
    24   12   13 1
    25   15   20 ar
    26   15   16 ar
    27   16   17 ar
    28   16   43 1
    29   17   18 ar
    30   17   44 1
    31   18   19 ar
    32   18   45 1
    33   19   20 ar
    34   19   23 1
    35   20   21 1
    36   21   22 2
    37   23   24 am
    38   23   46 1
    39   24   25 2
    40   24   26 1
    41   26   27 1
    42   26   47 1
    43   26   48 1
    44   27   32 1
    45   27   28 1
    46   28   29 1
    47   28   49 1
    48   28   50 1
    49   29   30 1
    50   29   51 1
    51   29   52 1
    52   30   31 1
    53   30   33 1
    54   31   32 1
    55   31   53 1
    56   31   54 1
    57   32   55 1
    58   32   56 1
    59   33   34 2
    60   33   35 1
    61   34   57 1
    62   34   60 1
    63   35   58 1
    64   35   59 1
@<TRIPOS>MOLECULE
CHEMBL211514
   61    63     0     0     0
SMALL
USER_CHARGES

@<TRIPOS>ATOM
      1 C1          2.9402   -6.4222    7.9871 C.3       1 <0>        -0.1192
      2 C2          4.2770   -6.4366    7.2915 C.ar      1 <0>        -0.0708
      3 C3          4.7266   -7.5947    6.6837 C.ar      1 <0>        -0.0944
      4 C4          5.9526   -7.6128    6.0448 C.ar      1 <0>        -0.0997
      5 C5          6.7328   -6.4724    6.0113 C.ar      1 <0>        -0.0391
      6 C6          6.2832   -5.3071    6.6209 C.ar      1 <0>         0.1402
      7 C7          5.0488   -5.2918    7.2571 C.ar      1 <0>        -0.0956
      8 N1          7.0699   -4.1512    6.5896 N.pl3     1 <0>        -0.5497
      9 C8          8.0410   -3.8970    7.6567 C.3       1 <0>         0.2277
     10 C9          9.3371   -4.4922    7.2926 C.1       1 <0>         0.1834
     11 N2         10.3374   -4.9515    7.0117 N.1       1 <0>        -0.4044
     12 C10         6.9308   -3.2455    5.5481 C.ar      1 <0>         0.4703
     13 C11         5.9378   -3.4199    4.5886 C.ar      1 <0>        -0.3257
     14 C12         5.8395   -2.4833    3.5643 C.ar      1 <0>         0.4543
     15 N3          6.6931   -1.4608    3.5392 N.ar      1 <0>        -0.5950
     16 C13         7.6196   -1.3307    4.4664 C.ar      1 <0>         0.3757
     17 N4          7.7418   -2.1932    5.4549 N.ar      1 <0>        -0.5936
     18 N5          4.8673   -2.6125    2.5835 N.pl3     1 <0>        -0.6531
     19 C14         4.8553   -1.7380    1.4901 C.ar      1 <0>         0.1379
     20 C15         3.6470   -1.3164    0.9509 C.ar      1 <0>        -0.1075
     21 C16         3.6360   -0.4535   -0.1272 C.ar      1 <0>        -0.1217
     22 C17         4.8315   -0.0078   -0.6715 C.ar      1 <0>         0.0991
     23 C18         6.0389   -0.4288   -0.1338 C.ar      1 <0>        -0.1861
     24 C19         6.0516   -1.2872    0.9479 C.ar      1 <0>        -0.0707
     25 O1          4.8198    0.8419   -1.7332 O.3       1 <0>        -0.3033
     26 C20         6.0874    1.2606   -2.2430 C.3       1 <0>         0.0306
     27 C21         5.8740    2.2063   -3.4266 C.3       1 <0>         0.0850
     28 H1          5.2451    1.7193   -4.1719 H         1 <0>         0.1344
     29 C22         7.2265    2.5559   -4.0505 C.3       1 <0>        -0.0446
     30 N6          7.0216    3.4639   -5.1869 N.4       1 <0>        -0.3816
     31 C23         8.3247    3.8943   -5.7110 C.3       1 <0>        -0.0478
     32 C24         6.2754    2.7663   -6.2426 C.3       1 <0>        -0.0548
     33 O2          5.2358    3.4014   -2.9723 O.3       1 <0>        -0.5437
     34 Cl1         8.2724   -6.4957    5.2094 Cl        1 <0>        -0.0495
     35 H2          2.1638   -6.1390    7.2763 H         1 <0>         0.0770
     36 H3          2.7258   -7.4149    8.3829 H         1 <0>         0.0741
     37 H4          2.9640   -5.7022    8.8051 H         1 <0>         0.0726
     38 H5          4.1188   -8.4870    6.7085 H         1 <0>         0.1392
     39 H6          6.3011   -8.5190    5.5717 H         1 <0>         0.1406
     40 H7          4.6947   -4.3869    7.7283 H         1 <0>         0.1403
     41 H8          8.1598   -2.8218    7.7911 H         1 <0>         0.1371
     42 H9          7.6848   -4.3422    8.5857 H         1 <0>         0.1242
     43 H10         5.2615   -4.2606    4.6376 H         1 <0>         0.1394
     44 H11         8.2964   -0.4905    4.4171 H         1 <0>         0.1992
     45 H12         4.1957   -3.3087    2.6551 H         1 <0>         0.4217
     46 H13         2.7161   -1.6636    1.3744 H         1 <0>         0.1351
     47 H14         2.6964   -0.1258   -0.5469 H         1 <0>         0.1357
     48 H15         6.9693   -0.0816   -0.5584 H         1 <0>         0.1250
     49 H16         6.9917   -1.6110    1.3695 H         1 <0>         0.1378
     50 H17         6.6411    1.7782   -1.4597 H         1 <0>         0.0763
     51 H18         6.6527    0.3886   -2.5720 H         1 <0>         0.0799
     52 H19         7.8554    3.0428   -3.3052 H         1 <0>         0.1388
     53 H20         7.7133    1.6443   -4.3970 H         1 <0>         0.1443
     54 H21         8.8899    3.0223   -6.0400 H         1 <0>         0.1231
     55 H22         8.1726    4.5680   -6.5543 H         1 <0>         0.1276
     56 H23         8.8784    4.4118   -4.9277 H         1 <0>         0.1240
     57 H24         6.1233    3.4401   -7.0859 H         1 <0>         0.1282
     58 H25         6.8406    1.8944   -6.5716 H         1 <0>         0.1237
     59 H26         5.3085    2.4470   -5.8537 H         1 <0>         0.1258
     60 H27         5.7402    3.8877   -2.3059 H         1 <0>         0.3903
     61 H28         6.4983    4.2711   -4.8824 H         1 <0>         0.4324
@<TRIPOS>BOND
     1    1    2 1
     2    1   35 1
     3    1   36 1
     4    1   37 1
     5    2    7 ar
     6    2    3 ar
     7    3    4 ar
     8    3   38 1
     9    4    5 ar
    10    4   39 1
    11    5    6 ar
    12    5   34 1
    13    6    7 ar
    14    6    8 1
    15    7   40 1
    16    8    9 1
    17    8   12 1
    18    9   10 1
    19    9   41 1
    20    9   42 1
    21   10   11 3
    22   12   17 ar
    23   12   13 ar
    24   13   14 ar
    25   13   43 1
    26   14   15 ar
    27   14   18 1
    28   15   16 ar
    29   16   17 ar
    30   16   44 1
    31   18   19 1
    32   18   45 1
    33   19   24 ar
    34   19   20 ar
    35   20   21 ar
    36   20   46 1
    37   21   22 ar
    38   21   47 1
    39   22   23 ar
    40   22   25 1
    41   23   24 ar
    42   23   48 1
    43   24   49 1
    44   25   26 1
    45   26   27 1
    46   26   50 1
    47   26   51 1
    48   27   28 1
    49   27   29 1
    50   27   33 1
    51   29   30 1
    52   29   52 1
    53   29   53 1
    54   30   31 1
    55   30   32 1
    56   30   61 1
    57   31   54 1
    58   31   55 1
    59   31   56 1
    60   32   57 1
    61   32   58 1
    62   32   59 1
    63   33   60 1
@<TRIPOS>MOLECULE
CHEMBL1081437
   54    58     0     0     0
SMALL
USER_CHARGES

@<TRIPOS>ATOM
      1 C1         -0.0167    1.3781    0.0096 C.ar      1 <0>        -0.1412
      2 C2          1.1709    2.0855    0.0021 C.ar      1 <0>        -0.0583
      3 C3          2.3773    1.4107   -0.0130 C.ar      1 <0>        -0.1628
      4 C4          2.3960    0.0285   -0.0201 C.ar      1 <0>        -0.0560
      5 C5          1.2085   -0.6789   -0.0117 C.ar      1 <0>        -0.1021
      6 C6          0.0021   -0.0041    0.0020 C.ar      1 <0>        -0.0987
      7 C7         -1.2926   -0.7753    0.0107 C.3       1 <0>        -0.0999
      8 C8         -1.7450   -1.0285   -1.4288 C.3       1 <0>         0.0251
      9 H1         -0.9463   -1.5264   -1.9784 H         1 <0>         0.1565
     10 C9         -2.9907   -1.9168   -1.4231 C.3       1 <0>         0.1104
     11 N1         -3.4936   -2.0615   -2.7914 N.pl3     1 <0>        -0.6955
     12 C10        -4.6223   -2.8271   -3.0375 C.2       1 <0>         0.2885
     13 N2         -5.3954   -3.5020   -2.1956 N.2       1 <0>        -0.3209
     14 N3         -6.3989   -4.1559   -2.5909 N.2       1 <0>        -0.2548
     15 C11        -6.7417   -4.2085   -3.8713 C.2       1 <0>         0.1340
     16 S1         -5.4580   -3.1816   -4.5808 S.3       1 <0>        -0.0106
     17 C12        -7.8663   -4.9107   -4.5255 C.ar      1 <0>        -0.0719
     18 C13        -8.0295   -4.8268   -5.9158 C.ar      1 <0>        -0.0427
     19 C14        -9.0605   -5.4679   -6.5347 C.ar      1 <0>        -0.1336
     20 C15        -9.9689   -6.2178   -5.7887 C.ar      1 <0>         0.1543
     21 C16        -9.8174   -6.3109   -4.3913 C.ar      1 <0>        -0.1742
     22 C17        -8.7548   -5.6560   -3.7626 C.ar      1 <0>         0.0311
     23 C18       -10.9109   -7.1531   -3.9151 C.2       1 <0>         0.1483
     24 N4        -11.6195   -7.5064   -4.9491 N.2       1 <0>        -0.2415
     25 N5        -11.0773   -6.9556   -6.1145 N.pl3     1 <0>        -0.4997
     26 H2        -11.4293   -7.0763   -7.0103 H         1 <0>         0.4462
     27 C19       -11.1725   -7.5441   -2.4834 C.3       1 <0>        -0.0968
     28 C20       -12.2525   -8.5965   -2.2245 C.3       1 <0>        -0.1599
     29 C21       -12.5125   -7.1306   -1.8718 C.3       1 <0>        -0.1570
     30 N6         -2.0599    0.2523   -2.0756 N.4       1 <0>        -0.6406
     31 C22         3.6720    2.1819   -0.0222 C.3       1 <0>         0.5036
     32 F1          4.0857    2.4144    1.2938 F         1 <0>        -0.1688
     33 F2          4.6506    1.4423   -0.6949 F         1 <0>        -0.1715
     34 F3          3.4816    3.4050   -0.6742 F         1 <0>        -0.1729
     35 H3         -0.9591    1.9053    0.0259 H         1 <0>         0.1373
     36 H4          1.1563    3.1654    0.0076 H         1 <0>         0.1471
     37 H5          3.3385   -0.4987   -0.0326 H         1 <0>         0.1479
     38 H6          1.2231   -1.7588   -0.0179 H         1 <0>         0.1454
     39 H7         -1.1443   -1.7285    0.5180 H         1 <0>         0.1339
     40 H8         -2.0551   -0.1993    0.5352 H         1 <0>         0.1114
     41 H9         -2.7351   -2.8985   -1.0242 H         1 <0>         0.1214
     42 H10        -3.7596   -1.4603   -0.7997 H         1 <0>         0.1043
     43 H11        -3.0366   -1.6214   -3.5252 H         1 <0>         0.4121
     44 H12        -7.3311   -4.2480   -6.5019 H         1 <0>         0.1328
     45 H13        -9.1745   -5.3945   -7.6062 H         1 <0>         0.1396
     46 H14        -8.6286   -5.7256   -2.6922 H         1 <0>         0.1455
     47 H15       -10.3002   -7.5463   -1.8298 H         1 <0>         0.1313
     48 H16       -12.7738   -9.0060   -3.0897 H         1 <0>         0.1047
     49 H17       -12.0907   -9.2914   -1.4005 H         1 <0>         0.1055
     50 H18       -12.5219   -6.8611   -0.8156 H         1 <0>         0.1067
     51 H19       -13.2050   -6.5758   -2.5049 H         1 <0>         0.0981
     52 H20        -2.7994    0.7132   -1.5668 H         1 <0>         0.4382
     53 H21        -1.2384    0.8381   -2.0794 H         1 <0>         0.4385
     54 H22        -2.3583    0.0853   -3.0249 H         1 <0>         0.4322
@<TRIPOS>BOND
     1    1    6 ar
     2    1    2 ar
     3    1   35 1
     4    2    3 ar
     5    2   36 1
     6    3    4 ar
     7    3   31 1
     8    4    5 ar
     9    4   37 1
    10    5    6 ar
    11    5   38 1
    12    6    7 1
    13    7    8 1
    14    7   39 1
    15    7   40 1
    16    8    9 1
    17    8   10 1
    18    8   30 1
    19   10   11 1
    20   10   41 1
    21   10   42 1
    22   11   12 1
    23   11   43 1
    24   12   16 1
    25   12   13 2
    26   13   14 1
    27   14   15 2
    28   15   16 1
    29   15   17 1
    30   17   22 ar
    31   17   18 ar
    32   18   19 ar
    33   18   44 1
    34   19   20 ar
    35   19   45 1
    36   20   25 1
    37   20   21 ar
    38   21   22 ar
    39   21   23 1
    40   22   46 1
    41   23   24 2
    42   23   27 1
    43   24   25 1
    44   25   26 1
    45   27   29 1
    46   27   28 1
    47   27   47 1
    48   28   29 1
    49   28   48 1
    50   28   49 1
    51   29   50 1
    52   29   51 1
    53   30   52 1
    54   30   53 1
    55   30   54 1
    56   31   32 1
    57   31   33 1
    58   31   34 1
@<TRIPOS>MOLECULE
CHEMBL1081438
   57    61     0     0     0
SMALL
USER_CHARGES

@<TRIPOS>ATOM
      1 C1         -0.0167    1.3792    0.0096 C.ar      1 <0>        -0.1028
      2 C2          1.1686    2.0925    0.0021 C.ar      1 <0>        -0.1186
      3 C3          2.3774    1.4271   -0.0134 C.ar      1 <0>        -0.0843
      4 C4          2.4026    0.0331   -0.0211 C.ar      1 <0>        -0.0302
      5 C5          1.2048   -0.6804   -0.0130 C.ar      1 <0>        -0.0921
      6 C6          0.0021   -0.0041    0.0020 C.ar      1 <0>        -0.1183
      7 C7          3.6977   -0.6875   -0.0382 C.2       1 <0>         0.1559
      8 C8          3.9896   -1.9629    0.6260 C.ar      1 <0>        -0.1684
      9 C9          3.2381   -2.8366    1.4122 C.ar      1 <0>         0.0260
     10 C10         3.8291   -3.9944    1.9016 C.ar      1 <0>        -0.0683
     11 C11         5.1699   -4.2790    1.6064 C.ar      1 <0>        -0.0430
     12 C12         5.9079   -3.4284    0.8389 C.ar      1 <0>        -0.1314
     13 C13         5.3345   -2.2605    0.3366 C.ar      1 <0>         0.1541
     14 N1          5.8096   -1.2371   -0.4432 N.pl3     1 <0>        -0.4963
     15 H1          6.7109   -1.1723   -0.7959 H         1 <0>         0.4475
     16 N2          4.7895   -0.3044   -0.6543 N.2       1 <0>        -0.2295
     17 C14         3.0431   -4.9281    2.7358 C.2       1 <0>         0.1315
     18 N3          1.7777   -4.8612    3.1288 N.2       1 <0>        -0.2529
     19 N4          1.2549   -5.7555    3.8482 N.2       1 <0>        -0.3206
     20 C15         1.9398   -6.8173    4.2551 C.2       1 <0>         0.2891
     21 S1          3.5253   -6.4753    3.4970 S.3       1 <0>        -0.0089
     22 N5          1.5400   -7.8881    5.0389 N.pl3     1 <0>        -0.6953
     23 C16         0.1674   -7.9518    5.5469 C.3       1 <0>         0.1103
     24 C17        -0.0106   -9.2246    6.3770 C.3       1 <0>         0.0241
     25 H2          0.0992  -10.0969    5.7327 H         1 <0>         0.1566
     26 C18        -1.4036   -9.2302    7.0099 C.3       1 <0>        -0.0957
     27 C19        -1.6249  -10.5377    7.7258 C.ar      1 <0>        -0.1290
     28 C20        -2.1748  -11.6112    7.0501 C.ar      1 <0>        -0.0707
     29 C21        -2.3778  -12.8104    7.7067 C.ar      1 <0>        -0.1021
     30 C22        -2.0306  -12.9365    9.0390 C.ar      1 <0>        -0.0549
     31 C23        -1.4800  -11.8636    9.7142 C.ar      1 <0>        -0.1675
     32 C24        -1.2730  -10.6653    9.0562 C.ar      1 <0>        -0.0931
     33 C25        -1.1019  -12.0009   11.1665 C.3       1 <0>         0.5050
     34 F1         -1.4006  -13.2951   11.6058 F         1 <0>        -0.1685
     35 F2          0.2684  -11.7622   11.3162 F         1 <0>        -0.1779
     36 F3         -1.8226  -11.0728   11.9257 F         1 <0>        -0.1700
     37 N6          1.0079   -9.2659    7.4348 N.4       1 <0>        -0.6413
     38 H3         -0.9603    1.9042    0.0260 H         1 <0>         0.1278
     39 H4          1.1478    3.1723    0.0081 H         1 <0>         0.1300
     40 H5          3.3021    1.9850   -0.0199 H         1 <0>         0.1290
     41 H6          1.2182   -1.7603   -0.0192 H         1 <0>         0.1267
     42 H7         -0.9264   -0.5557    0.0082 H         1 <0>         0.1297
     43 H8          2.2057   -2.6146    1.6386 H         1 <0>         0.1460
     44 H9          5.6224   -5.1809    1.9914 H         1 <0>         0.1339
     45 H10         6.9397   -3.6594    0.6189 H         1 <0>         0.1410
     46 H11         2.1690   -8.5953    5.2511 H         1 <0>         0.4122
     47 H12        -0.0298   -7.0803    6.1712 H         1 <0>         0.1044
     48 H13        -0.5299   -7.9639    4.7092 H         1 <0>         0.1217
     49 H14        -1.4826   -8.4084    7.7216 H         1 <0>         0.1102
     50 H15        -2.1569   -9.1102    6.2313 H         1 <0>         0.1342
     51 H16        -2.4461  -11.5127    6.0094 H         1 <0>         0.1433
     52 H17        -2.8080  -13.6488    7.1791 H         1 <0>         0.1479
     53 H18        -2.1898  -13.8733    9.5522 H         1 <0>         0.1498
     54 H19        -0.8393   -9.8280    9.5828 H         1 <0>         0.1351
     55 H20         0.9063   -8.4584    8.0312 H         1 <0>         0.4383
     56 H21         0.8906  -10.1053    7.9822 H         1 <0>         0.4380
     57 H22         1.9266   -9.2622    7.0174 H         1 <0>         0.4324
@<TRIPOS>BOND
     1    1    6 ar
     2    1    2 ar
     3    1   38 1
     4    2    3 ar
     5    2   39 1
     6    3    4 ar
     7    3   40 1
     8    4    5 ar
     9    4    7 1
    10    5    6 ar
    11    5   41 1
    12    6   42 1
    13    7   16 2
    14    7    8 1
    15    8   13 ar
    16    8    9 ar
    17    9   10 ar
    18    9   43 1
    19   10   11 ar
    20   10   17 1
    21   11   12 ar
    22   11   44 1
    23   12   13 ar
    24   12   45 1
    25   13   14 1
    26   14   15 1
    27   14   16 1
    28   17   21 1
    29   17   18 2
    30   18   19 1
    31   19   20 2
    32   20   21 1
    33   20   22 1
    34   22   23 1
    35   22   46 1
    36   23   24 1
    37   23   47 1
    38   23   48 1
    39   24   25 1
    40   24   26 1
    41   24   37 1
    42   26   27 1
    43   26   49 1
    44   26   50 1
    45   27   32 ar
    46   27   28 ar
    47   28   29 ar
    48   28   51 1
    49   29   30 ar
    50   29   52 1
    51   30   31 ar
    52   30   53 1
    53   31   32 ar
    54   31   33 1
    55   32   54 1
    56   33   34 1
    57   33   35 1
    58   33   36 1
    59   37   55 1
    60   37   56 1
    61   37   57 1
@<TRIPOS>MOLECULE
CHEMBL258040
   59    63     0     0     0
SMALL
USER_CHARGES

@<TRIPOS>ATOM
      1 C1         -0.0165    1.3785    0.0260 C.ar      1 <0>        -0.0513
      2 C2          1.1691    2.0867    0.0185 C.ar      1 <0>        -0.1995
      3 C3          2.3811    1.4088   -0.0131 C.ar      1 <0>         0.2262
      4 C4          2.3961    0.0200   -0.0370 C.ar      1 <0>        -0.1998
      5 C5          1.2069   -0.6821   -0.0294 C.ar      1 <0>        -0.0514
      6 C6          0.0021   -0.0041    0.0020 C.ar      1 <0>        -0.1357
      7 C7         -1.2936   -0.7735    0.0107 C.3       1 <0>        -0.0849
      8 C8         -1.7495   -1.0058   -1.4068 C.2       1 <0>         0.5028
      9 O1         -1.0873   -0.5875   -2.3330 O.2       1 <0>        -0.4733
     10 N1         -2.8929   -1.6781   -1.6454 N.am      1 <0>        -0.6388
     11 C9         -3.3163   -1.8938   -2.9619 C.2       1 <0>         0.3123
     12 C10        -4.5318   -2.5974   -3.3738 C.ar      1 <0>        -0.1506
     13 C11        -5.5711   -3.2257   -2.6801 C.ar      1 <0>        -0.0792
     14 C12        -6.6015   -3.8138   -3.3865 C.ar      1 <0>         0.1754
     15 C13        -6.6069   -3.7820   -4.7815 C.ar      1 <0>        -0.1077
     16 C14        -5.5981   -3.1718   -5.4693 C.ar      1 <0>        -0.0992
     17 C15        -4.5469   -2.5711   -4.7806 C.ar      1 <0>         0.1238
     18 N2         -3.4176   -1.8978   -5.1765 N.pl3     1 <0>        -0.5023
     19 H1         -3.1604   -1.7231   -6.0953 H         1 <0>         0.4449
     20 N3         -2.7006   -1.4984   -4.0442 N.2       1 <0>        -0.2264
     21 N4         -7.6453   -4.4451   -2.7001 N.pl3     1 <0>        -0.9293
     22 C16        -7.5963   -5.0209   -1.3440 C.3       1 <0>         0.0633
     23 C17        -8.9801   -4.9562   -0.6711 C.3       1 <0>        -0.1309
     24 C18        -9.9820   -5.4476   -1.7590 C.3       1 <0>        -0.5888
     25 S1         -9.2094   -4.6950   -3.2486 S.o2      1 <0>         2.5544
     26 O2         -9.7381   -3.3986   -3.4913 O.2       1 <0>        -0.9418
     27 O3         -9.0970   -5.6521   -4.2929 O.2       1 <0>        -0.9446
     28 N5          3.5820    2.1220   -0.0212 N.pl3     1 <0>        -0.6282
     29 C19         4.8700    1.4204    0.0669 C.3       1 <0>         0.1196
     30 C20         5.7532    1.8621   -1.1042 C.3       1 <0>        -0.1381
     31 C21         5.8675    3.3882   -1.1045 C.3       1 <0>        -0.1190
     32 C22         4.4791    4.0055   -1.2870 C.3       1 <0>        -0.1382
     33 C23         3.5816    3.5876   -0.1240 C.3       1 <0>         0.1203
     34 H2         -0.9591    1.9048    0.0550 H         1 <0>         0.1180
     35 H3          1.1539    3.1665    0.0368 H         1 <0>         0.1219
     36 H4          3.3367   -0.5102   -0.0619 H         1 <0>         0.1220
     37 H5          1.2178   -1.7619   -0.0480 H         1 <0>         0.1179
     38 H6         -1.1432   -1.7329    0.5057 H         1 <0>         0.1041
     39 H7         -2.0516   -0.2028    0.5472 H         1 <0>         0.1042
     40 H8         -3.4225   -2.0126   -0.9047 H         1 <0>         0.4204
     41 H9         -5.5675   -3.2511   -1.6004 H         1 <0>         0.1316
     42 H10        -7.4181   -4.2458   -5.3230 H         1 <0>         0.1358
     43 H11        -5.6150   -3.1546   -6.5490 H         1 <0>         0.1396
     44 H12        -7.2765   -6.0610   -1.4073 H         1 <0>         0.0889
     45 H13        -6.8787   -4.4625   -0.7429 H         1 <0>         0.1019
     46 H14        -9.0103   -5.6150    0.1968 H         1 <0>         0.1196
     47 H15        -9.2112   -3.9320   -0.3783 H         1 <0>         0.0992
     48 H16        -9.9978   -6.5356   -1.8220 H         1 <0>         0.1477
     49 H17       -10.9815   -5.0476   -1.5880 H         1 <0>         0.1479
     50 H18         5.3590    1.6711    1.0082 H         1 <0>         0.0616
     51 H19         4.7043    0.3444    0.0141 H         1 <0>         0.0833
     52 H20         6.7451    1.4230   -0.9977 H         1 <0>         0.0730
     53 H21         5.3068    1.5306   -2.0418 H         1 <0>         0.0667
     54 H22         6.2911    3.7208   -0.1568 H         1 <0>         0.0631
     55 H23         6.5155    3.7037   -1.9222 H         1 <0>         0.0644
     56 H24         4.5641    5.0919   -1.3105 H         1 <0>         0.0735
     57 H25         4.0447    3.6537   -2.2228 H         1 <0>         0.0664
     58 H26         2.5661    3.9411   -0.3028 H         1 <0>         0.0828
     59 H27         3.9632    4.0190    0.8014 H         1 <0>         0.0608
@<TRIPOS>BOND
     1    1    6 ar
     2    1    2 ar
     3    1   34 1
     4    2    3 ar
     5    2   35 1
     6    3    4 ar
     7    3   28 1
     8    4    5 ar
     9    4   36 1
    10    5    6 ar
    11    5   37 1
    12    6    7 1
    13    7    8 1
    14    7   38 1
    15    7   39 1
    16    8    9 2
    17    8   10 am
    18   10   11 1
    19   10   40 1
    20   11   20 2
    21   11   12 1
    22   12   17 ar
    23   12   13 ar
    24   13   14 ar
    25   13   41 1
    26   14   15 ar
    27   14   21 1
    28   15   16 ar
    29   15   42 1
    30   16   17 ar
    31   16   43 1
    32   17   18 1
    33   18   19 1
    34   18   20 1
    35   21   25 1
    36   21   22 1
    37   22   23 1
    38   22   44 1
    39   22   45 1
    40   23   24 1
    41   23   46 1
    42   23   47 1
    43   24   25 1
    44   24   48 1
    45   24   49 1
    46   25   26 2
    47   25   27 2
    48   28   33 1
    49   28   29 1
    50   29   30 1
    51   29   50 1
    52   29   51 1
    53   30   31 1
    54   30   52 1
    55   30   53 1
    56   31   32 1
    57   31   54 1
    58   31   55 1
    59   32   33 1
    60   32   56 1
    61   32   57 1
    62   33   58 1
    63   33   59 1
@<TRIPOS>MOLECULE
CHEMBL149015
   62    67     0     0     0
SMALL
USER_CHARGES

@<TRIPOS>ATOM
      1 C1          0.2333    1.9899   -0.1846 C.ar      1 <0>        -0.0677
      2 C2          1.4549    2.6519   -0.1691 C.ar      1 <0>        -0.1068
      3 C3          2.6366    1.9323   -0.0763 C.ar      1 <0>         0.0091
      4 C4          2.5893    0.5276    0.0018 C.ar      1 <0>        -0.1876
      5 C5          1.3590   -0.1277   -0.0142 C.ar      1 <0>         0.2264
      6 C6          0.1803    0.6164   -0.1086 C.ar      1 <0>        -0.1158
      7 N1          1.3052   -1.5156    0.0625 N.am      1 <0>        -0.6702
      8 C7          0.2914   -2.1155    0.7172 C.2       1 <0>         0.5194
      9 O1         -0.6153   -1.4503    1.1710 O.2       1 <0>        -0.4957
     10 C8          0.2845   -3.6131    0.8853 C.3       1 <0>         0.0362
     11 N2         -0.9170   -4.0170    1.6276 N.3       1 <0>        -0.5200
     12 C9         -0.8757   -3.5168    3.0094 C.3       1 <0>         0.0106
     13 C10        -2.1701   -3.9083    3.7271 C.3       1 <0>         0.0660
     14 O2         -2.3302   -5.3283    3.6700 O.3       1 <0>        -0.3859
     15 C11        -2.3752   -5.8495    2.3390 C.3       1 <0>         0.0643
     16 C12        -1.0828   -5.4776    1.6072 C.3       1 <0>         0.0173
     17 C13         3.9841    0.0396    0.0902 C.2       1 <0>         0.4851
     18 O3          4.3406   -1.1194    0.1712 O.2       1 <0>        -0.4325
     19 C14         4.8604    1.2279    0.0603 C.2       1 <0>        -0.3155
     20 C15         4.0569    2.3562   -0.0390 C.2       1 <0>         0.1555
     21 N3          4.8749    3.4305   -0.0648 N.pl3     1 <0>        -0.4255
     22 H1          4.5919    4.3560   -0.1300 H         1 <0>         0.4463
     23 N4          6.1989    2.9855    0.0180 N.2       1 <0>        -0.2747
     24 C16         6.2044    1.6707    0.0937 C.2       1 <0>         0.2082
     25 C17         7.4048    0.8080    0.1956 C.ar      1 <0>        -0.0968
     26 C18         7.3605   -0.3643    0.9504 C.ar      1 <0>        -0.0219
     27 C19         8.4782   -1.1651    1.0437 C.ar      1 <0>        -0.2015
     28 C20         9.6496   -0.8052    0.3866 C.ar      1 <0>         0.2375
     29 C21         9.6962    0.3629   -0.3664 C.ar      1 <0>        -0.2046
     30 C22         8.5792    1.1637   -0.4678 C.ar      1 <0>        -0.0305
     31 N5         10.7799   -1.6169    0.4833 N.pl3     1 <0>        -0.6291
     32 C23        12.0659   -1.1970   -0.0957 C.3       1 <0>         0.0841
     33 C24        13.1511   -1.3475    0.9765 C.3       1 <0>         0.0455
     34 O4         13.0995   -2.6704    1.5160 O.3       1 <0>        -0.3789
     35 C25        11.8723   -2.9849    2.1785 C.3       1 <0>         0.0453
     36 C26        10.7231   -2.9157    1.1727 C.3       1 <0>         0.0832
     37 H2         -0.6826    2.5580   -0.2525 H         1 <0>         0.1436
     38 H3          1.4840    3.7298   -0.2297 H         1 <0>         0.1356
     39 H4         -0.7750    0.1128   -0.1213 H         1 <0>         0.1563
     40 H5          1.9974   -2.0516   -0.3552 H         1 <0>         0.4209
     41 H6          0.2828   -4.0888   -0.0954 H         1 <0>         0.1136
     42 H7          1.1729   -3.9209    1.4369 H         1 <0>         0.0745
     43 H8         -0.0241   -3.9550    3.5298 H         1 <0>         0.0408
     44 H9         -0.7784   -2.4311    3.0007 H         1 <0>         0.1034
     45 H10        -2.1198   -3.5892    4.7682 H         1 <0>         0.0991
     46 H11        -3.0171   -3.4265    3.2387 H         1 <0>         0.0628
     47 H12        -2.4732   -6.9344    2.3760 H         1 <0>         0.1008
     48 H13        -3.2281   -5.4242    1.8101 H         1 <0>         0.0618
     49 H14        -1.1367   -5.8234    0.5749 H         1 <0>         0.0898
     50 H15        -0.2345   -5.9472    2.1052 H         1 <0>         0.0472
     51 H16         6.4511   -0.6439    1.4615 H         1 <0>         0.1276
     52 H17         8.4443   -2.0728    1.6280 H         1 <0>         0.1276
     53 H18        10.6072    0.6406   -0.8757 H         1 <0>         0.1272
     54 H19         8.6144    2.0684   -1.0567 H         1 <0>         0.1276
     55 H20        12.3061   -1.8271   -0.9521 H         1 <0>         0.0730
     56 H21        12.0037   -0.1556   -0.4115 H         1 <0>         0.0945
     57 H22        14.1303   -1.1742    0.5303 H         1 <0>         0.1062
     58 H23        12.9795   -0.6228    1.7724 H         1 <0>         0.0566
     59 H24        11.9316   -3.9896    2.5970 H         1 <0>         0.1064
     60 H25        11.6961   -2.2661    2.9788 H         1 <0>         0.0562
     61 H26         9.7720   -3.0119    1.6965 H         1 <0>         0.0951
     62 H27        10.8258   -3.7218    0.4462 H         1 <0>         0.0732
@<TRIPOS>BOND
     1    1    6 ar
     2    1    2 ar
     3    1   37 1
     4    2    3 ar
     5    2   38 1
     6    3   20 1
     7    3    4 ar
     8    4    5 ar
     9    4   17 1
    10    5    6 ar
    11    5    7 1
    12    6   39 1
    13    7    8 am
    14    7   40 1
    15    8    9 2
    16    8   10 1
    17   10   11 1
    18   10   41 1
    19   10   42 1
    20   11   16 1
    21   11   12 1
    22   12   13 1
    23   12   43 1
    24   12   44 1
    25   13   14 1
    26   13   45 1
    27   13   46 1
    28   14   15 1
    29   15   16 1
    30   15   47 1
    31   15   48 1
    32   16   49 1
    33   16   50 1
    34   17   18 2
    35   17   19 1
    36   19   24 1
    37   19   20 2
    38   20   21 1
    39   21   22 1
    40   21   23 1
    41   23   24 2
    42   24   25 1
    43   25   30 ar
    44   25   26 ar
    45   26   27 ar
    46   26   51 1
    47   27   28 ar
    48   27   52 1
    49   28   29 ar
    50   28   31 1
    51   29   30 ar
    52   29   53 1
    53   30   54 1
    54   31   36 1
    55   31   32 1
    56   32   33 1
    57   32   55 1
    58   32   56 1
    59   33   34 1
    60   33   57 1
    61   33   58 1
    62   34   35 1
    63   35   36 1
    64   35   59 1
    65   35   60 1
    66   36   61 1
    67   36   62 1
@<TRIPOS>MOLECULE
CHEMBL149015
   62    67     0     0     0
SMALL
USER_CHARGES

@<TRIPOS>ATOM
      1 C1          0.2094    2.0022   -0.1844 C.ar      1 <0>        -0.0659
      2 C2          1.4338    2.6502   -0.1682 C.ar      1 <0>        -0.1047
      3 C3          2.6111    1.9193   -0.0763 C.ar      1 <0>         0.0391
      4 C4          2.5545    0.5166    0.0009 C.ar      1 <0>        -0.1867
      5 C5          1.3106   -0.1266   -0.0163 C.ar      1 <0>         0.2210
      6 C6          0.1442    0.6263   -0.1092 C.ar      1 <0>        -0.1209
      7 N1          1.2413   -1.5151    0.0591 N.am      1 <0>        -0.6699
      8 C7          0.2216   -2.1043    0.7145 C.2       1 <0>         0.5186
      9 O1         -0.6771   -1.4293    1.1700 O.2       1 <0>        -0.4965
     10 C8          0.1983   -3.6018    0.8814 C.3       1 <0>         0.0364
     11 N2         -1.0068   -3.9930    1.6248 N.3       1 <0>        -0.5198
     12 C9         -0.9582   -3.4944    3.0070 C.3       1 <0>         0.0107
     13 C10        -2.2560   -3.8721    3.7260 C.3       1 <0>         0.0660
     14 O2         -2.4320   -5.2902    3.6678 O.3       1 <0>        -0.3863
     15 C11        -2.4843   -5.8097    2.3364 C.3       1 <0>         0.0643
     16 C12        -1.1888   -5.4516    1.6034 C.3       1 <0>         0.0174
     17 C13         3.9306   -0.0124    0.0900 C.2       1 <0>         0.4920
     18 O3          4.2450   -1.1851    0.1697 O.2       1 <0>        -0.4459
     19 C14         4.8514    1.1316    0.0645 C.2       1 <0>        -0.3384
     20 C15         4.0330    2.3426   -0.0393 C.2       1 <0>         0.1258
     21 N3          4.8509    3.3657   -0.0627 N.2       1 <0>        -0.2372
     22 H1          6.9594    3.4754    0.0213 H         1 <0>         0.4478
     23 N4          6.1706    2.9108    0.0194 N.pl3     1 <0>        -0.4678
     24 C16         6.1750    1.5501    0.0975 C.2       1 <0>         0.2517
     25 C17         7.3641    0.6836    0.1977 C.ar      1 <0>        -0.1275
     26 C18         7.3855   -0.3736    1.1124 C.ar      1 <0>        -0.0111
     27 C19         8.4973   -1.1805    1.2033 C.ar      1 <0>        -0.2006
     28 C20         9.5990   -0.9446    0.3866 C.ar      1 <0>         0.2450
     29 C21         9.5814    0.1071   -0.5246 C.ar      1 <0>        -0.2022
     30 C22         8.4704    0.9139   -0.6256 C.ar      1 <0>        -0.0389
     31 N5         10.7223   -1.7626    0.4817 N.pl3     1 <0>        -0.6254
     32 C23        11.9461   -1.4602   -0.2773 C.3       1 <0>         0.0824
     33 C24        13.1346   -1.4885    0.6904 C.3       1 <0>         0.0457
     34 O4         13.1241   -2.7222    1.4127 O.3       1 <0>        -0.3777
     35 C25        11.9686   -2.9102    2.2332 C.3       1 <0>         0.0454
     36 C26        10.7223   -2.9515    1.3488 C.3       1 <0>         0.0812
     37 H2         -0.7012    2.5789   -0.2519 H         1 <0>         0.1425
     38 H3          1.4729    3.7279   -0.2276 H         1 <0>         0.1383
     39 H4         -0.8157    0.1316   -0.1227 H         1 <0>         0.1546
     40 H5          1.9268   -2.0584   -0.3601 H         1 <0>         0.4199
     41 H6          0.1901   -4.0767   -0.0997 H         1 <0>         0.1128
     42 H7          1.0839   -3.9199    1.4316 H         1 <0>         0.0736
     43 H8         -0.1109   -3.9425    3.5260 H         1 <0>         0.0403
     44 H9         -0.8488   -2.4099    2.9991 H         1 <0>         0.1040
     45 H10        -2.2010   -3.5545    4.7672 H         1 <0>         0.0990
     46 H11        -3.0982   -3.3805    3.2389 H         1 <0>         0.0630
     47 H12        -2.5944   -6.8935    2.3727 H         1 <0>         0.1004
     48 H13        -3.3332   -5.3745    1.8090 H         1 <0>         0.0618
     49 H14        -1.2478   -5.7959    0.5708 H         1 <0>         0.0895
     50 H15        -0.3452   -5.9311    2.0999 H         1 <0>         0.0467
     51 H16         6.5311   -0.5569    1.7470 H         1 <0>         0.1293
     52 H17         8.5145   -1.9974    1.9096 H         1 <0>         0.1309
     53 H18        10.4384    0.2879   -1.1564 H         1 <0>         0.1302
     54 H19         8.4554    1.7270   -1.3363 H         1 <0>         0.1253
     55 H20        12.0892   -2.2087   -1.0566 H         1 <0>         0.0753
     56 H21        11.8634   -0.4713   -0.7283 H         1 <0>         0.0947
     57 H22        14.0643   -1.4040    0.1278 H         1 <0>         0.1075
     58 H23        13.0545   -0.6564    1.3899 H         1 <0>         0.0568
     59 H24        12.0594   -3.8485    2.7805 H         1 <0>         0.1080
     60 H25        11.8843   -2.0833    2.9383 H         1 <0>         0.0567
     61 H26         9.8295   -2.9498    1.9742 H         1 <0>         0.0962
     62 H27        10.7401   -3.8528    0.7361 H         1 <0>         0.0757
@<TRIPOS>BOND
     1    1    6 ar
     2    1    2 ar
     3    1   37 1
     4    2    3 ar
     5    2   38 1
     6    3   20 1
     7    3    4 ar
     8    4    5 ar
     9    4   17 1
    10    5    6 ar
    11    5    7 1
    12    6   39 1
    13    7    8 am
    14    7   40 1
    15    8    9 2
    16    8   10 1
    17   10   11 1
    18   10   41 1
    19   10   42 1
    20   11   16 1
    21   11   12 1
    22   12   13 1
    23   12   43 1
    24   12   44 1
    25   13   14 1
    26   13   45 1
    27   13   46 1
    28   14   15 1
    29   15   16 1
    30   15   47 1
    31   15   48 1
    32   16   49 1
    33   16   50 1
    34   17   18 2
    35   17   19 1
    36   19   20 1
    37   19   24 2
    38   20   21 2
    39   21   23 1
    40   22   23 1
    41   23   24 1
    42   24   25 1
    43   25   30 ar
    44   25   26 ar
    45   26   27 ar
    46   26   51 1
    47   27   28 ar
    48   27   52 1
    49   28   29 ar
    50   28   31 1
    51   29   30 ar
    52   29   53 1
    53   30   54 1
    54   31   36 1
    55   31   32 1
    56   32   33 1
    57   32   55 1
    58   32   56 1
    59   33   34 1
    60   33   57 1
    61   33   58 1
    62   34   35 1
    63   35   36 1
    64   35   59 1
    65   35   60 1
    66   36   61 1
    67   36   62 1
@<TRIPOS>MOLECULE
CHEMBL609040
   30    34     0     0     0
SMALL
USER_CHARGES

@<TRIPOS>ATOM
      1 C1         -0.0168    1.3846    0.0097 C.ar      1 <0>        -0.0927
      2 C2          1.1593    2.0998    0.0023 C.ar      1 <0>        -0.1054
      3 C3          2.3809    1.4297   -0.0130 C.ar      1 <0>        -0.0240
      4 C4          2.4154    0.0112   -0.0209 C.ar      1 <0>        -0.0531
      5 C5          3.6387   -0.6996   -0.0356 C.ar      1 <0>        -0.0884
      6 C6          4.8324   -0.0417   -0.0418 C.ar      1 <0>         0.1451
      7 C7          4.8065    1.3582   -0.0339 C.ar      1 <0>        -0.0700
      8 C8          3.6583    2.1440   -0.0209 C.ar      1 <0>        -0.0035
      9 C9          3.8205    3.5333   -0.0174 C.ar      1 <0>         0.0953
     10 C10         5.1123    4.0652   -0.0238 C.ar      1 <0>         0.0212
     11 C11         6.2454    3.2551   -0.0347 C.ar      1 <0>         0.0055
     12 C12         6.1089    1.8721   -0.0407 C.ar      1 <0>        -0.1505
     13 C13         6.9692    0.6859   -0.0539 C.2       1 <0>         0.5837
     14 O1          8.1865    0.6872   -0.0626 O.2       1 <0>        -0.4853
     15 N1          6.1745   -0.4146   -0.0548 N.am      1 <0>        -0.6518
     16 O2          5.0122    5.4297   -0.0175 O.3       1 <0>        -0.3005
     17 C14         3.6631    5.7202   -0.4256 C.3       1 <0>         0.2116
     18 O3          2.9243    4.5570   -0.0096 O.3       1 <0>        -0.2947
     19 C15         1.1948   -0.6940   -0.0134 C.ar      1 <0>         0.1225
     20 C16         0.0021   -0.0041    0.0020 C.ar      1 <0>        -0.1355
     21 O4          1.1944   -2.0520   -0.0210 O.3       1 <0>        -0.4910
     22 H1         -0.9616    1.9075    0.0260 H         1 <0>         0.1353
     23 H2          1.1353    3.1796    0.0079 H         1 <0>         0.1386
     24 H3          3.6264   -1.7796   -0.0417 H         1 <0>         0.1425
     25 H4          7.2289    3.7013   -0.0388 H         1 <0>         0.1542
     26 H5          6.4954   -1.3299   -0.0632 H         1 <0>         0.4276
     27 H6          3.2927    6.6112    0.0815 H         1 <0>         0.1409
     28 H7          3.6079    5.8428   -1.5073 H         1 <0>         0.0924
     29 H8         -0.9297   -0.5500    0.0084 H         1 <0>         0.1359
     30 H9          1.2026   -2.4503    0.8601 H         1 <0>         0.3942
@<TRIPOS>BOND
     1    1   20 ar
     2    1    2 ar
     3    1   22 1
     4    2    3 ar
     5    2   23 1
     6    3    8 ar
     7    3    4 ar
     8    4    5 ar
     9    4   19 ar
    10    5    6 ar
    11    5   24 1
    12    6   15 1
    13    6    7 ar
    14    7   12 ar
    15    7    8 ar
    16    8    9 ar
    17    9   18 1
    18    9   10 ar
    19   10   11 ar
    20   10   16 1
    21   11   12 ar
    22   11   25 1
    23   12   13 1
    24   13   14 2
    25   13   15 am
    26   15   26 1
    27   16   17 1
    28   17   18 1
    29   17   27 1
    30   17   28 1
    31   19   20 ar
    32   19   21 1
    33   20   29 1
    34   21   30 1
@<TRIPOS>MOLECULE
CHEMBL363954
   40    43     0     0     0
SMALL
USER_CHARGES

@<TRIPOS>ATOM
      1 C1         -0.0168    1.3887    0.0097 C.ar      1 <0>        -0.1762
      2 C2          1.1576    2.0865    0.0022 C.ar      1 <0>        -0.0554
      3 C3          2.3622    1.3589   -0.0132 C.ar      1 <0>        -0.1012
      4 C4          3.6080    2.0069   -0.0210 C.ar      1 <0>        -0.0771
      5 C5          4.7509    1.2673   -0.0355 C.ar      1 <0>        -0.0697
      6 C6          4.7014   -0.1254   -0.0431 C.ar      1 <0>        -0.0847
      7 C7          3.5118   -0.7859   -0.0363 C.ar      1 <0>        -0.0896
      8 C8          2.3094   -0.0572   -0.0203 C.ar      1 <0>         0.1295
      9 N1          1.1262   -0.6787   -0.0118 N.ar      1 <0>        -0.4751
     10 C9          0.0021   -0.0041    0.0020 C.ar      1 <0>         0.1326
     11 C10         6.0872    1.9639   -0.0439 C.3       1 <0>        -0.0959
     12 C11         6.5457    2.1883    1.3740 C.2       1 <0>         0.5057
     13 O1          5.8552    1.8190    2.3002 O.2       1 <0>        -0.4560
     14 N2          7.7229    2.7995    1.6129 N.am      1 <0>        -0.6252
     15 C12         8.1458    3.0065    2.9207 C.2       1 <0>         0.2647
     16 N3          7.5386    2.6720    4.0387 N.2       1 <0>        -0.5170
     17 C13         8.0762    2.9413    5.2140 C.2       1 <0>         0.0599
     18 C14         9.2751    3.5742    5.2127 C.2       1 <0>        -0.1946
     19 S1          9.5623    3.7393    3.4583 S.3       1 <0>         0.1103
     20 C15        10.1317    4.0129    6.3724 C.3       1 <0>        -0.0209
     21 C16        10.8387    5.3589    6.1415 C.3       1 <0>        -0.1347
     22 C17        12.0690    4.7406    6.8263 C.3       1 <0>        -0.1423
     23 C18        11.5288    3.3704    6.3840 C.3       1 <0>        -0.1333
     24 H1         -0.9590    1.9163    0.0260 H         1 <0>         0.1390
     25 H2          1.1616    3.1664    0.0076 H         1 <0>         0.1388
     26 H3          3.6592    3.0857   -0.0160 H         1 <0>         0.1292
     27 H4          5.6222   -0.6896   -0.0550 H         1 <0>         0.1295
     28 H5          3.4912   -1.8657   -0.0431 H         1 <0>         0.1378
     29 H6         -0.9341   -0.5425    0.0081 H         1 <0>         0.1605
     30 H7          6.8160    1.3455   -0.5678 H         1 <0>         0.1134
     31 H8          5.9934    2.9238   -0.5517 H         1 <0>         0.1121
     32 H9          8.2751    3.0948    0.8721 H         1 <0>         0.4258
     33 H10         7.5827    2.6697    6.1355 H         1 <0>         0.1734
     34 H11         9.6136    3.9488    7.3293 H         1 <0>         0.1159
     35 H12        10.9970    5.5940    5.0890 H         1 <0>         0.0817
     36 H13        10.3977    6.1851    6.6992 H         1 <0>         0.0750
     37 H14        13.0135    5.0107    6.3540 H         1 <0>         0.0721
     38 H15        12.0812    4.8767    7.9077 H         1 <0>         0.0852
     39 H16        11.6449    2.5913    7.1374 H         1 <0>         0.0746
     40 H17        11.8757    3.0620    5.3978 H         1 <0>         0.0824
@<TRIPOS>BOND
     1    1   10 ar
     2    1    2 ar
     3    1   24 1
     4    2    3 ar
     5    2   25 1
     6    3    8 ar
     7    3    4 ar
     8    4    5 ar
     9    4   26 1
    10    5    6 ar
    11    5   11 1
    12    6    7 ar
    13    6   27 1
    14    7    8 ar
    15    7   28 1
    16    8    9 ar
    17    9   10 ar
    18   10   29 1
    19   11   12 1
    20   11   30 1
    21   11   31 1
    22   12   13 2
    23   12   14 am
    24   14   15 1
    25   14   32 1
    26   15   19 1
    27   15   16 2
    28   16   17 1
    29   17   18 2
    30   17   33 1
    31   18   19 1
    32   18   20 1
    33   20   23 1
    34   20   21 1
    35   20   34 1
    36   21   22 1
    37   21   35 1
    38   21   36 1
    39   22   23 1
    40   22   37 1
    41   22   38 1
    42   23   39 1
    43   23   40 1
@<TRIPOS>MOLECULE
CHEMBL186898
   38    41     0     0     0
SMALL
USER_CHARGES

@<TRIPOS>ATOM
      1 C1         -0.0167    1.3831    0.0096 C.ar      1 <0>        -0.0824
      2 C2          1.1624    2.0981    0.0022 C.ar      1 <0>        -0.1095
      3 C3          2.3752    1.4236   -0.0129 C.ar      1 <0>         0.0494
      4 C4          2.3937    0.0183   -0.0206 C.ar      1 <0>         0.0464
      5 C5          1.1866   -0.6850   -0.0131 C.ar      1 <0>        -0.0433
      6 C6          0.0021   -0.0041    0.0020 C.ar      1 <0>        -0.0828
      7 C7         -1.2971   -0.7677    0.0103 C.3       1 <0>        -0.0894
      8 C8         -1.7437   -1.0146   -1.4077 C.2       1 <0>         0.5050
      9 O1         -1.0730   -0.6103   -2.3338 O.2       1 <0>        -0.4554
     10 N1         -2.8884   -1.6847   -1.6467 N.am      1 <0>        -0.6259
     11 C9         -3.3003   -1.9124   -2.9546 C.2       1 <0>         0.2672
     12 N2         -2.7051   -1.5571   -4.0726 N.2       1 <0>        -0.5177
     13 C10        -3.2294   -1.8513   -5.2480 C.2       1 <0>         0.0606
     14 C11        -4.4018   -2.5320   -5.2467 C.2       1 <0>        -0.1964
     15 S1         -4.6778   -2.7161   -3.4924 S.3       1 <0>         0.1082
     16 C12        -5.2388   -3.0069   -6.4064 C.3       1 <0>        -0.0204
     17 C13        -6.7527   -2.8964   -6.1597 C.3       1 <0>        -0.1347
     18 C14        -6.8874   -4.2561   -6.8652 C.3       1 <0>        -0.1424
     19 C15        -5.4353   -4.5318   -6.4406 C.3       1 <0>        -0.1335
     20 N3          3.6978   -0.3599   -0.0355 N.2       1 <0>        -0.4956
     21 C16         4.4592    0.6952   -0.0374 C.2       1 <0>         0.2630
     22 N4          3.6970    1.8220   -0.0238 N.pl3     1 <0>        -0.6031
     23 H1          4.0221    2.7359   -0.0222 H         1 <0>         0.4247
     24 H2         -0.9613    1.9066    0.0260 H         1 <0>         0.1298
     25 H3          1.1421    3.1779    0.0078 H         1 <0>         0.1253
     26 H4          1.1898   -1.7649   -0.0194 H         1 <0>         0.1282
     27 H5         -1.1545   -1.7218    0.5177 H         1 <0>         0.1113
     28 H6         -2.0564   -0.1873    0.5345 H         1 <0>         0.1119
     29 H7         -3.4248   -2.0080   -0.9060 H         1 <0>         0.4255
     30 H8         -2.7460   -1.5622   -6.1695 H         1 <0>         0.1728
     31 H9         -4.9186   -2.5865   -7.3597 H         1 <0>         0.1155
     32 H10        -7.0262   -2.9227   -5.1049 H         1 <0>         0.0817
     33 H11        -7.2243   -2.0755   -6.6999 H         1 <0>         0.0747
     34 H12        -7.6130   -4.9211   -6.3967 H         1 <0>         0.0719
     35 H13        -7.0193   -4.1770   -7.9442 H         1 <0>         0.0849
     36 H14        -4.8434   -5.0312   -7.2077 H         1 <0>         0.0743
     37 H15        -5.3487   -5.0052   -5.4626 H         1 <0>         0.0825
     38 H16         5.5390    0.6788   -0.0478 H         1 <0>         0.2177
@<TRIPOS>BOND
     1    1    6 ar
     2    1    2 ar
     3    1   24 1
     4    2    3 ar
     5    2   25 1
     6    3   22 1
     7    3    4 ar
     8    4    5 ar
     9    4   20 1
    10    5    6 ar
    11    5   26 1
    12    6    7 1
    13    7    8 1
    14    7   27 1
    15    7   28 1
    16    8    9 2
    17    8   10 am
    18   10   11 1
    19   10   29 1
    20   11   15 1
    21   11   12 2
    22   12   13 1
    23   13   14 2
    24   13   30 1
    25   14   15 1
    26   14   16 1
    27   16   19 1
    28   16   17 1
    29   16   31 1
    30   17   18 1
    31   17   32 1
    32   17   33 1
    33   18   19 1
    34   18   34 1
    35   18   35 1
    36   19   36 1
    37   19   37 1
    38   20   21 2
    39   21   22 1
    40   21   38 1
    41   22   23 1
@<TRIPOS>MOLECULE
CHEMBL358057
   59    63     0     0     0
SMALL
USER_CHARGES

@<TRIPOS>ATOM
      1 C1          0.5255   -1.1117   -2.8549 C.3       1 <0>        -0.0470
      2 N1          0.2806   -1.2843   -1.4168 N.4       1 <0>        -0.3838
      3 C2          1.1118   -2.3831   -0.9090 C.3       1 <0>        -0.0235
      4 C3          0.9435   -2.4894    0.6103 C.3       1 <0>         0.0997
      5 N2         -0.4900   -2.6228    0.9125 N.pl3     1 <0>        -0.6456
      6 C4         -1.4188   -1.6552    0.3081 C.3       1 <0>         0.1002
      7 C5         -1.1390   -1.5882   -1.1969 C.3       1 <0>        -0.0230
      8 C6         -0.9569   -3.6414    1.7507 C.ar      1 <0>         0.1811
      9 C7         -0.0794   -4.6083    2.2238 C.ar      1 <0>        -0.1640
     10 C8         -0.5402   -5.6134    3.0508 C.ar      1 <0>        -0.0612
     11 C9         -1.8811   -5.6576    3.4092 C.ar      1 <0>         0.1301
     12 C10        -2.7587   -4.6911    2.9358 C.ar      1 <0>        -0.0967
     13 C11        -2.2967   -3.6822    2.1142 C.ar      1 <0>        -0.1627
     14 N3         -2.3486   -6.6775    4.2478 N.pl3     1 <0>        -0.6309
     15 C12        -1.5394   -7.1705    5.2528 C.ar      1 <0>         0.6023
     16 N4         -0.3705   -6.5805    5.4796 N.ar      1 <0>        -0.5757
     17 C13         0.4409   -7.0120    6.4282 C.ar      1 <0>         0.2562
     18 C14         0.0422   -8.1121    7.1965 C.ar      1 <0>        -0.2815
     19 C15         0.8772   -8.6530    8.2646 C.2       1 <0>         0.0034
     20 C16         0.4160   -9.7232    8.9635 C.2       1 <0>        -0.2233
     21 C17        -0.8385  -10.2854    8.6524 C.2       1 <0>         0.5384
     22 O1         -1.2329  -11.2451    9.2920 O.2       1 <0>        -0.5028
     23 N5         -1.6126   -9.7918    7.6696 N.am      1 <0>        -0.5006
     24 C18        -1.2066   -8.7134    6.9268 C.ar      1 <0>         0.4639
     25 N6         -1.9604   -8.2102    5.9575 N.ar      1 <0>        -0.5937
     26 C19        -2.9082  -10.4154    7.3888 C.3       1 <0>         0.1255
     27 C20        -3.7831  -10.4112    8.6593 C.3       1 <0>        -0.1322
     28 C21        -4.5407  -11.7610    8.6033 C.3       1 <0>        -0.1171
     29 C22        -3.4706  -12.7305    8.0429 C.3       1 <0>        -0.1177
     30 C23        -2.7094  -11.8901    6.9969 C.3       1 <0>        -0.1238
     31 H1         -0.0850   -0.2910   -3.2315 H         1 <0>         0.1249
     32 H2          1.5791   -0.8860   -3.0196 H         1 <0>         0.1250
     33 H3          0.2642   -2.0300   -3.3808 H         1 <0>         0.1214
     34 H4          0.8023   -3.3184   -1.3753 H         1 <0>         0.1322
     35 H5          2.1575   -2.1873   -1.1460 H         1 <0>         0.1405
     36 H6          1.4783   -3.3653    0.9776 H         1 <0>         0.1269
     37 H7          1.3361   -1.5908    1.0861 H         1 <0>         0.0873
     38 H8         -2.4458   -1.9796    0.4756 H         1 <0>         0.1260
     39 H9         -1.2648   -0.6723    0.7534 H         1 <0>         0.0870
     40 H10        -1.7518   -0.8067   -1.6461 H         1 <0>         0.1404
     41 H11        -1.3804   -2.5476   -1.6545 H         1 <0>         0.1322
     42 H12         0.9633   -4.5743    1.9445 H         1 <0>         0.1260
     43 H13         0.1422   -6.3653    3.4187 H         1 <0>         0.1391
     44 H14        -3.8016   -4.7257    3.2143 H         1 <0>         0.1314
     45 H15        -2.9782   -2.9277    1.7499 H         1 <0>         0.1271
     46 H16        -3.2405   -7.0376    4.1228 H         1 <0>         0.4265
     47 H17         1.3896   -6.5278    6.6067 H         1 <0>         0.1858
     48 H18         1.8371   -8.2141    8.4934 H         1 <0>         0.1527
     49 H19         1.0125  -10.1443    9.7592 H         1 <0>         0.1610
     50 H20        -3.4134   -9.8802    6.5849 H         1 <0>         0.1156
     51 H21        -3.1595  -10.3605    9.5519 H         1 <0>         0.0838
     52 H22        -4.4857   -9.5782    8.6359 H         1 <0>         0.0669
     53 H23        -4.8562  -12.0685    9.6003 H         1 <0>         0.0721
     54 H24        -5.3948  -11.6969    7.9293 H         1 <0>         0.0674
     55 H25        -2.7965  -13.0543    8.8358 H         1 <0>         0.0790
     56 H26        -3.9451  -13.5901    7.5695 H         1 <0>         0.0651
     57 H27        -3.1190  -12.0707    6.0030 H         1 <0>         0.0707
     58 H28        -1.6491  -12.1418    7.0156 H         1 <0>         0.0671
     59 H29         0.5201   -0.4327   -0.9315 H         1 <0>         0.4247
@<TRIPOS>BOND
     1    1    2 1
     2    1   31 1
     3    1   32 1
     4    1   33 1
     5    2    7 1
     6    2    3 1
     7    2   59 1
     8    3    4 1
     9    3   34 1
    10    3   35 1
    11    4    5 1
    12    4   36 1
    13    4   37 1
    14    5    6 1
    15    5    8 1
    16    6    7 1
    17    6   38 1
    18    6   39 1
    19    7   40 1
    20    7   41 1
    21    8   13 ar
    22    8    9 ar
    23    9   10 ar
    24    9   42 1
    25   10   11 ar
    26   10   43 1
    27   11   12 ar
    28   11   14 1
    29   12   13 ar
    30   12   44 1
    31   13   45 1
    32   14   15 1
    33   14   46 1
    34   15   25 ar
    35   15   16 ar
    36   16   17 ar
    37   17   18 ar
    38   17   47 1
    39   18   24 ar
    40   18   19 1
    41   19   20 2
    42   19   48 1
    43   20   21 1
    44   20   49 1
    45   21   22 2
    46   21   23 am
    47   23   24 1
    48   23   26 1
    49   24   25 ar
    50   26   30 1
    51   26   27 1
    52   26   50 1
    53   27   28 1
    54   27   51 1
    55   27   52 1
    56   28   29 1
    57   28   53 1
    58   28   54 1
    59   29   30 1
    60   29   55 1
    61   29   56 1
    62   30   57 1
    63   30   58 1
@<TRIPOS>MOLECULE
CHEMBL358057
   58    62     0     0     0
SMALL
USER_CHARGES

@<TRIPOS>ATOM
      1 C1          0.6741   -0.9859   -2.9165 C.3       1 <0>         0.0242
      2 N1          0.3683   -1.2731   -1.5087 N.3       1 <0>        -0.5427
      3 C2          1.2209   -2.3532   -0.9945 C.3       1 <0>         0.0380
      4 C3          1.0004   -2.4988    0.5150 C.3       1 <0>         0.1257
      5 N2         -0.4391   -2.6716    0.7623 N.pl3     1 <0>        -0.6312
      6 C4         -1.3694   -1.7031    0.1625 C.3       1 <0>         0.1261
      7 C5         -1.0556   -1.5887   -1.3331 C.3       1 <0>         0.0384
      8 C6         -0.9111   -3.7296    1.5472 C.ar      1 <0>         0.2127
      9 C7         -0.0289   -4.6950    2.0144 C.ar      1 <0>        -0.1819
     10 C8         -0.4947   -5.7389    2.7888 C.ar      1 <0>        -0.0540
     11 C9         -1.8454   -5.8237    3.1002 C.ar      1 <0>         0.0928
     12 C10        -2.7277   -4.8586    2.6327 C.ar      1 <0>        -0.0886
     13 C11        -2.2609   -3.8110    1.8638 C.ar      1 <0>        -0.1812
     14 N3         -2.3179   -6.8830    3.8854 N.pl3     1 <0>        -0.6228
     15 C12        -1.5317   -7.3959    4.8986 C.ar      1 <0>         0.6062
     16 N4         -0.3839   -6.7908    5.1857 N.ar      1 <0>        -0.5696
     17 C13         0.4050   -7.2401    6.1448 C.ar      1 <0>         0.2584
     18 C14         0.0053   -8.3756    6.8592 C.ar      1 <0>        -0.2918
     19 C15         0.8163   -8.9381    7.9346 C.2       1 <0>         0.0116
     20 C16         0.3557  -10.0424    8.5786 C.2       1 <0>        -0.2345
     21 C17        -0.8754  -10.6185    8.2055 C.2       1 <0>         0.5408
     22 O1         -1.2696  -11.6088    8.7965 O.2       1 <0>        -0.5117
     23 N5         -1.6273  -10.1051    7.2157 N.am      1 <0>        -0.5012
     24 C18        -1.2207   -8.9920    6.5262 C.ar      1 <0>         0.4634
     25 N6         -1.9529   -8.4691    5.5509 N.ar      1 <0>        -0.5999
     26 C19        -2.8991  -10.7443    6.8692 C.3       1 <0>         0.1259
     27 C20        -3.8152  -10.8047    8.1089 C.3       1 <0>        -0.1318
     28 C21        -4.5411  -12.1668    7.9789 C.3       1 <0>        -0.1167
     29 C22        -3.4324  -13.0929    7.4202 C.3       1 <0>        -0.1168
     30 C23        -2.6557  -12.1992    6.4313 C.3       1 <0>        -0.1237
     31 H1          0.0833   -0.1328   -3.2499 H         1 <0>         0.0707
     32 H2          1.7346   -0.7555   -3.0182 H         1 <0>         0.0704
     33 H3          0.4314   -1.8564   -3.5259 H         1 <0>         0.0258
     34 H4          0.9629   -3.2883   -1.4916 H         1 <0>         0.0384
     35 H5          2.2667   -2.1145   -1.1879 H         1 <0>         0.0859
     36 H6          1.5421   -3.3707    0.8817 H         1 <0>         0.0874
     37 H7          1.3547   -1.6030    1.0249 H         1 <0>         0.0705
     38 H8         -2.3944   -2.0488    0.2962 H         1 <0>         0.0864
     39 H9         -1.2429   -0.7307    0.6385 H         1 <0>         0.0702
     40 H10        -1.6608   -0.7956   -1.7721 H         1 <0>         0.0858
     41 H11        -1.2819   -2.5345   -1.8255 H         1 <0>         0.0384
     42 H12         1.0214   -4.6295    1.7717 H         1 <0>         0.1256
     43 H13         0.1913   -6.4897    3.1522 H         1 <0>         0.1319
     44 H14        -3.7781   -4.9247    2.8745 H         1 <0>         0.1241
     45 H15        -2.9463   -3.0578    1.5042 H         1 <0>         0.1265
     46 H16        -3.1973   -7.2564    3.7177 H         1 <0>         0.4230
     47 H17         1.3366   -6.7434    6.3724 H         1 <0>         0.1844
     48 H18         1.7584   -8.4883    8.2111 H         1 <0>         0.1507
     49 H19         0.9347  -10.4802    9.3782 H         1 <0>         0.1578
     50 H20        -3.3892  -10.1904    6.0685 H         1 <0>         0.1160
     51 H21        -3.2225  -10.7740    9.0231 H         1 <0>         0.0836
     52 H22        -4.5346   -9.9859    8.0919 H         1 <0>         0.0665
     53 H23        -4.8824  -12.5171    8.9530 H         1 <0>         0.0703
     54 H24        -5.3738  -12.0955    7.2793 H         1 <0>         0.0667
     55 H25        -2.7778  -13.4318    8.2232 H         1 <0>         0.0782
     56 H26        -3.8724  -13.9441    6.9005 H         1 <0>         0.0633
     57 H27        -3.0284  -12.3516    5.4184 H         1 <0>         0.0701
     58 H28        -1.5913  -12.4297    6.4765 H         1 <0>         0.0670
@<TRIPOS>BOND
     1    1    2 1
     2    1   31 1
     3    1   32 1
     4    1   33 1
     5    2    7 1
     6    2    3 1
     7    3    4 1
     8    3   34 1
     9    3   35 1
    10    4    5 1
    11    4   36 1
    12    4   37 1
    13    5    6 1
    14    5    8 1
    15    6    7 1
    16    6   38 1
    17    6   39 1
    18    7   40 1
    19    7   41 1
    20    8   13 ar
    21    8    9 ar
    22    9   10 ar
    23    9   42 1
    24   10   11 ar
    25   10   43 1
    26   11   12 ar
    27   11   14 1
    28   12   13 ar
    29   12   44 1
    30   13   45 1
    31   14   15 1
    32   14   46 1
    33   15   25 ar
    34   15   16 ar
    35   16   17 ar
    36   17   18 ar
    37   17   47 1
    38   18   24 ar
    39   18   19 1
    40   19   20 2
    41   19   48 1
    42   20   21 1
    43   20   49 1
    44   21   22 2
    45   21   23 am
    46   23   24 1
    47   23   26 1
    48   24   25 ar
    49   26   30 1
    50   26   27 1
    51   26   50 1
    52   27   28 1
    53   27   51 1
    54   27   52 1
    55   28   29 1
    56   28   53 1
    57   28   54 1
    58   29   30 1
    59   29   55 1
    60   29   56 1
    61   30   57 1
    62   30   58 1
@<TRIPOS>MOLECULE
CHEMBL362004
   22    24     0     0     0
SMALL
USER_CHARGES

@<TRIPOS>ATOM
      1 C1         -0.0170    1.4018    0.0097 C.ar      1 <0>        -0.0211
      2 C2          1.1328    2.1164    0.0026 C.ar      1 <0>        -0.1181
      3 C3          2.3893    1.4880   -0.0128 C.ar      1 <0>         0.1405
      4 C4          2.4809    0.0912   -0.0212 C.ar      1 <0>        -0.1517
      5 C5          3.8479   -0.2388   -0.0360 C.2       1 <0>         0.0860
      6 N1          4.5430    0.8657   -0.0367 N.2       1 <0>        -0.2671
      7 N2          3.6736    1.9632   -0.0225 N.pl3     1 <0>        -0.4756
      8 H1          3.9354    2.8973   -0.0205 H         1 <0>         0.4451
      9 C6          1.2450   -0.6992   -0.0141 C.ar      1 <0>         0.1228
     10 C7          0.0021   -0.0041    0.0020 C.ar      1 <0>        -0.1075
     11 C8         -0.9743   -1.0091    0.0071 C.2       1 <0>        -0.0242
     12 N3         -0.2974   -2.1934   -0.0052 N.pl3     1 <0>        -0.3391
     13 H2         -0.7149   -3.0689   -0.0057 H         1 <0>         0.4504
     14 N4          0.9710   -1.9867   -0.0184 N.2       1 <0>        -0.2627
     15 C9         -2.4273   -0.8254    0.0224 C.2       1 <0>         0.5984
     16 O1         -2.8988    0.2968    0.0323 O.2       1 <0>        -0.5152
     17 N5         -3.2423   -1.8988    0.0255 N.am      1 <0>        -0.8493
     18 H3         -0.9644    1.9201    0.0261 H         1 <0>         0.1461
     19 H4          1.0831    3.1952    0.0085 H         1 <0>         0.1362
     20 H5          4.2546   -1.2393   -0.0450 H         1 <0>         0.1936
     21 H6         -2.8665   -2.7931    0.0176 H         1 <0>         0.3976
     22 H7         -4.2045   -1.7772    0.0357 H         1 <0>         0.4149
@<TRIPOS>BOND
     1    1   10 ar
     2    1    2 ar
     3    1   18 1
     4    2    3 ar
     5    2   19 1
     6    3    7 1
     7    3    4 ar
     8    4    5 1
     9    4    9 ar
    10    5    6 2
    11    5   20 1
    12    6    7 1
    13    7    8 1
    14    9   14 2
    15    9   10 ar
    16   10   11 2
    17   11   12 1
    18   11   15 1
    19   12   13 1
    20   12   14 1
    21   15   16 2
    22   15   17 am
    23   17   21 1
    24   17   22 1
@<TRIPOS>MOLECULE
CHEMBL362004
   22    24     0     0     0
SMALL
USER_CHARGES

@<TRIPOS>ATOM
      1 C1         -0.0170    1.4022    0.0098 C.ar      1 <0>        -0.0211
      2 C2          1.1153    2.1375    0.0029 C.ar      1 <0>        -0.1035
      3 C3          2.4179    1.4794   -0.0130 C.ar      1 <0>         0.1313
      4 C4          2.4645    0.0089   -0.0213 C.ar      1 <0>        -0.1932
      5 C5          3.7962   -0.3410   -0.0359 C.2       1 <0>         0.0925
      6 N1          4.5202    0.7896   -0.0367 N.pl3     1 <0>        -0.4405
      7 N2          3.6676    1.8996   -0.0227 N.2       1 <0>        -0.2834
      8 H1          5.4892    0.8310   -0.0457 H         1 <0>         0.4479
      9 C6          1.2008   -0.7226   -0.0128 C.ar      1 <0>         0.1236
     10 C7          0.0021   -0.0041    0.0020 C.ar      1 <0>        -0.1291
     11 C8         -1.0400   -1.0403    0.0064 C.2       1 <0>         0.0124
     12 N3         -0.4111   -2.1973   -0.0058 N.2       1 <0>        -0.2348
     13 H2          1.5029   -2.7711   -0.0279 H         1 <0>         0.4474
     14 N4          0.8629   -2.0423   -0.0169 N.pl3     1 <0>        -0.3858
     15 C9         -2.4988   -0.8270    0.0214 C.2       1 <0>         0.6119
     16 O1         -2.9481    0.3029    0.0317 O.2       1 <0>        -0.5274
     17 N5         -3.3345   -1.8845    0.0237 N.am      1 <0>        -0.8405
     18 H3         -0.9695    1.9110    0.0262 H         1 <0>         0.1457
     19 H4          1.0570    3.2159    0.0088 H         1 <0>         0.1416
     20 H5          4.1889   -1.3470   -0.0445 H         1 <0>         0.1880
     21 H6         -2.9761   -2.7858    0.0154 H         1 <0>         0.4079
     22 H7         -4.2942   -1.7442    0.0336 H         1 <0>         0.4092
@<TRIPOS>BOND
     1    1   10 ar
     2    1    2 ar
     3    1   18 1
     4    2    3 ar
     5    2   19 1
     6    3    4 ar
     7    3    7 2
     8    4    9 ar
     9    4    5 2
    10    5   20 1
    11    5    6 1
    12    6    8 1
    13    6    7 1
    14    9   10 ar
    15    9   14 1
    16   10   11 1
    17   11   15 1
    18   11   12 2
    19   12   14 1
    20   13   14 1
    21   15   16 2
    22   15   17 am
    23   17   21 1
    24   17   22 1
@<TRIPOS>MOLECULE
CHEMBL362004
   22    24     0     0     0
SMALL
USER_CHARGES

@<TRIPOS>ATOM
      1 C1         -0.0169    1.3946    0.0097 C.ar      1 <0>         0.0047
      2 C2          1.1481    2.0980    0.0024 C.ar      1 <0>        -0.1511
      3 C3          2.3790    1.4333   -0.0130 C.ar      1 <0>         0.1625
      4 C4          2.4251    0.0295   -0.0210 C.ar      1 <0>        -0.1817
      5 C5          3.7890   -0.3393   -0.0368 C.2       1 <0>         0.0779
      6 N1          4.5134    0.7430   -0.0383 N.2       1 <0>        -0.2540
      7 N2          3.6794    1.8672   -0.0238 N.pl3     1 <0>        -0.4885
      8 H1          3.9709    2.7924   -0.0218 H         1 <0>         0.4467
      9 C6          1.2199   -0.7004   -0.0123 C.ar      1 <0>         0.1362
     10 C7          0.0021   -0.0041    0.0020 C.ar      1 <0>        -0.1412
     11 C8         -1.0206   -1.0583    0.0062 C.2       1 <0>         0.0144
     12 N3         -0.3707   -2.2030   -0.0061 N.2       1 <0>        -0.2191
     13 H2          1.5520   -2.7473   -0.0266 H         1 <0>         0.4497
     14 N4          0.9010   -2.0283   -0.0160 N.pl3     1 <0>        -0.3985
     15 C9         -2.4828   -0.8718    0.0212 C.2       1 <0>         0.6124
     16 O1         -2.9526    0.2498    0.0317 O.2       1 <0>        -0.5288
     17 N5         -3.2990   -1.9443    0.0234 N.am      1 <0>        -0.8396
     18 H3         -0.9609    1.9189    0.0261 H         1 <0>         0.1496
     19 H4          1.1222    3.1777    0.0081 H         1 <0>         0.1383
     20 H5          4.1678   -1.3506   -0.0460 H         1 <0>         0.1921
     21 H6         -2.9242   -2.8390    0.0150 H         1 <0>         0.4084
     22 H7         -4.2611   -1.8216    0.0332 H         1 <0>         0.4097
@<TRIPOS>BOND
     1    1   10 ar
     2    1    2 ar
     3    1   18 1
     4    2    3 ar
     5    2   19 1
     6    3    7 1
     7    3    4 ar
     8    4    5 1
     9    4    9 ar
    10    5    6 2
    11    5   20 1
    12    6    7 1
    13    7    8 1
    14    9   10 ar
    15    9   14 1
    16   10   11 1
    17   11   15 1
    18   11   12 2
    19   12   14 1
    20   13   14 1
    21   15   16 2
    22   15   17 am
    23   17   21 1
    24   17   22 1
@<TRIPOS>MOLECULE
CHEMBL362004
   22    24     0     0     0
SMALL
USER_CHARGES

@<TRIPOS>ATOM
      1 C1         -0.0177    1.4504    0.0100 C.ar      1 <0>        -0.0388
      2 C2          1.1194    2.1729    0.0030 C.ar      1 <0>        -0.0768
      3 C3          2.4246    1.5133   -0.0129 C.ar      1 <0>         0.1181
      4 C4          2.4900    0.0471   -0.0214 C.ar      1 <0>        -0.1709
      5 C5          3.8196   -0.2890   -0.0358 C.2       1 <0>         0.1010
      6 N1          4.5349    0.8508   -0.0366 N.pl3     1 <0>        -0.4559
      7 N2          3.6692    1.9504   -0.0224 N.2       1 <0>        -0.2755
      8 H1          5.5035    0.9025   -0.0455 H         1 <0>         0.4467
      9 C6          1.2316   -0.7169   -0.0139 C.ar      1 <0>         0.1240
     10 C7          0.0021   -0.0041    0.0020 C.ar      1 <0>        -0.0973
     11 C8         -0.9890   -0.9923    0.0054 C.2       1 <0>        -0.0254
     12 N3         -0.3300   -2.1885   -0.0077 N.pl3     1 <0>        -0.3587
     13 H2         -0.7602   -3.0578   -0.0091 H         1 <0>         0.4489
     14 N4          0.9406   -1.9990   -0.0185 N.2       1 <0>        -0.2625
     15 C9         -2.4399   -0.7855    0.0200 C.2       1 <0>         0.5983
     16 O1         -2.8935    0.3439    0.0308 O.2       1 <0>        -0.5143
     17 N5         -3.2718   -1.8459    0.0214 N.am      1 <0>        -0.8501
     18 H3         -0.9676    1.9640    0.0264 H         1 <0>         0.1461
     19 H4          1.0665    3.2516    0.0089 H         1 <0>         0.1422
     20 H5          4.2216   -1.2914   -0.0445 H         1 <0>         0.1894
     21 H6         -2.9102   -2.7460    0.0128 H         1 <0>         0.3973
     22 H7         -4.2320   -1.7090    0.0311 H         1 <0>         0.4142
@<TRIPOS>BOND
     1    1   10 ar
     2    1    2 ar
     3    1   18 1
     4    2    3 ar
     5    2   19 1
     6    3    4 ar
     7    3    7 2
     8    4    9 ar
     9    4    5 2
    10    5   20 1
    11    5    6 1
    12    6    8 1
    13    6    7 1
    14    9   14 2
    15    9   10 ar
    16   10   11 2
    17   11   12 1
    18   11   15 1
    19   12   13 1
    20   12   14 1
    21   15   16 2
    22   15   17 am
    23   17   21 1
    24   17   22 1
@<TRIPOS>MOLECULE
CHEMBL148638
   32    35     0     0     0
SMALL
USER_CHARGES

@<TRIPOS>ATOM
      1 C1         -0.0300    1.3671    0.0423 C.ar      1 <0>        -0.0640
      2 C2          1.1535    2.0948    0.0382 C.ar      1 <0>        -0.1098
      3 C3          2.3751    1.4387    0.0139 C.ar      1 <0>         0.0102
      4 C4          2.4067    0.0313   -0.0060 C.ar      1 <0>        -0.1970
      5 C5          1.2137   -0.6901   -0.0009 C.ar      1 <0>         0.2513
      6 C6         -0.0060   -0.0092    0.0229 C.ar      1 <0>        -0.1242
      7 N1          1.2377   -2.0806   -0.0210 N.am      1 <0>        -0.6762
      8 C7          0.1845   -2.7658   -0.5087 C.2       1 <0>         0.7086
      9 O1         -0.7418   -2.1707   -1.0243 O.2       1 <0>        -0.5702
     10 N2          0.1583   -4.1107   -0.4249 N.am      1 <0>        -0.8545
     11 C8          3.8278   -0.3816   -0.0294 C.2       1 <0>         0.4843
     12 O2          4.2490   -1.5216   -0.0505 O.2       1 <0>        -0.4284
     13 C9          4.6366    0.8527   -0.0223 C.2       1 <0>        -0.3114
     14 C10         3.7707    1.9386    0.0036 C.2       1 <0>         0.1630
     15 N3          4.5277    3.0566    0.0093 N.pl3     1 <0>        -0.4204
     16 H1          4.1924    3.9667    0.0265 H         1 <0>         0.4495
     17 N4          5.8763    2.6844   -0.0128 N.2       1 <0>        -0.2582
     18 C11         5.9569    1.3680   -0.0311 C.2       1 <0>         0.2328
     19 C12         7.2003    0.5734   -0.0570 C.2       1 <0>        -0.1117
     20 C13         8.3920    0.8540   -0.6735 C.2       1 <0>        -0.1146
     21 C14         9.4254   -0.0480   -0.5570 C.2       1 <0>        -0.1640
     22 C15         9.2344   -1.1846    0.1624 C.2       1 <0>        -0.1701
     23 S1          7.5463   -0.9998    0.7130 S.3       1 <0>         0.1172
     24 H2         -0.9771    1.8856    0.0655 H         1 <0>         0.1442
     25 H3          1.1221    3.1742    0.0537 H         1 <0>         0.1359
     26 H4         -0.9325   -0.5641    0.0263 H         1 <0>         0.1640
     27 H5          2.0124   -2.5573    0.3159 H         1 <0>         0.4194
     28 H6          0.8974   -4.5855   -0.0136 H         1 <0>         0.4030
     29 H7         -0.5997   -4.6038   -0.7759 H         1 <0>         0.4225
     30 H8          8.5177    1.7648   -1.2400 H         1 <0>         0.1385
     31 H9         10.3760    0.1452   -1.0318 H         1 <0>         0.1393
     32 H10         9.9270   -1.9906    0.3550 H         1 <0>         0.1909
@<TRIPOS>BOND
     1    1    6 ar
     2    1    2 ar
     3    1   24 1
     4    2    3 ar
     5    2   25 1
     6    3   14 1
     7    3    4 ar
     8    4    5 ar
     9    4   11 1
    10    5    6 ar
    11    5    7 1
    12    6   26 1
    13    7    8 am
    14    7   27 1
    15    8    9 2
    16    8   10 am
    17   10   28 1
    18   10   29 1
    19   11   12 2
    20   11   13 1
    21   13   18 1
    22   13   14 2
    23   14   15 1
    24   15   16 1
    25   15   17 1
    26   17   18 2
    27   18   19 1
    28   19   23 1
    29   19   20 2
    30   20   21 1
    31   20   30 1
    32   21   22 2
    33   21   31 1
    34   22   23 1
    35   22   32 1
@<TRIPOS>MOLECULE
CHEMBL148638
   32    35     0     0     0
SMALL
USER_CHARGES

@<TRIPOS>ATOM
      1 C1         -0.0300    1.3702    0.0429 C.ar      1 <0>        -0.0611
      2 C2          1.1509    2.0942    0.0381 C.ar      1 <0>        -0.1086
      3 C3          2.3744    1.4372    0.0135 C.ar      1 <0>         0.0409
      4 C4          2.4087    0.0316   -0.0064 C.ar      1 <0>        -0.1966
      5 C5          1.2077   -0.6887   -0.0016 C.ar      1 <0>         0.2465
      6 C6         -0.0059   -0.0092    0.0234 C.ar      1 <0>        -0.1308
      7 N1          1.2282   -2.0808   -0.0213 N.am      1 <0>        -0.6766
      8 C7          0.1730   -2.7635   -0.5080 C.2       1 <0>         0.7081
      9 O1         -0.7522   -2.1663   -1.0231 O.2       1 <0>        -0.5704
     10 N2          0.1436   -4.1083   -0.4238 N.am      1 <0>        -0.8558
     11 C8          3.8175   -0.4108   -0.0307 C.2       1 <0>         0.4918
     12 O2          4.2075   -1.5637   -0.0523 O.2       1 <0>        -0.4442
     13 C9          4.6623    0.7877   -0.0250 C.2       1 <0>        -0.3251
     14 C10         3.7674    1.9481    0.0026 C.2       1 <0>         0.1309
     15 N3          4.5181    3.0214    0.0074 N.2       1 <0>        -0.2288
     16 H1          6.6167    3.2666   -0.0165 H         1 <0>         0.4501
     17 N4          5.8664    2.6518   -0.0154 N.pl3     1 <0>        -0.4598
     18 C11         5.9613    1.2896   -0.0349 C.2       1 <0>         0.2774
     19 C12         7.1985    0.5033   -0.0620 C.2       1 <0>        -0.1903
     20 C13         8.3368    0.6908   -0.8315 C.2       1 <0>        -0.1050
     21 C14         9.3481   -0.2214   -0.6334 C.2       1 <0>        -0.1788
     22 C15         9.1720   -1.2131    0.2725 C.2       1 <0>        -0.2400
     23 S1          7.6346   -0.9385    0.8914 S.3       1 <0>         0.2676
     24 H2         -0.9767    1.8893    0.0665 H         1 <0>         0.1432
     25 H3          1.1202    3.1737    0.0531 H         1 <0>         0.1386
     26 H4         -0.9328   -0.5634    0.0278 H         1 <0>         0.1624
     27 H5          2.0020   -2.5592    0.3153 H         1 <0>         0.4184
     28 H6          0.8818   -4.5848   -0.0129 H         1 <0>         0.4022
     29 H7         -0.6159   -4.5997   -0.7741 H         1 <0>         0.4218
     30 H8          8.4239    1.5005   -1.5409 H         1 <0>         0.1432
     31 H9         10.2691   -0.1478   -1.1926 H         1 <0>         0.1382
     32 H10         9.8640   -1.9983    0.5392 H         1 <0>         0.1907
@<TRIPOS>BOND
     1    1    6 ar
     2    1    2 ar
     3    1   24 1
     4    2    3 ar
     5    2   25 1
     6    3   14 1
     7    3    4 ar
     8    4    5 ar
     9    4   11 1
    10    5    6 ar
    11    5    7 1
    12    6   26 1
    13    7    8 am
    14    7   27 1
    15    8    9 2
    16    8   10 am
    17   10   28 1
    18   10   29 1
    19   11   12 2
    20   11   13 1
    21   13   14 1
    22   13   18 2
    23   14   15 2
    24   15   17 1
    25   16   17 1
    26   17   18 1
    27   18   19 1
    28   19   23 1
    29   19   20 2
    30   20   21 1
    31   20   30 1
    32   21   22 2
    33   21   31 1
    34   22   23 1
    35   22   32 1
@<TRIPOS>MOLECULE
CHEMBL487066
   53    56     0     0     0
SMALL
USER_CHARGES

@<TRIPOS>ATOM
      1 C1         -0.2935    1.5851   -0.1869 C.3       1 <0>        -0.1415
      2 C2         -0.2140    0.0846   -0.0721 C.cat     1 <0>         0.3293
      3 N1         -0.3348   -0.7593   -1.0626 N.pl3     1 <0>        -0.4778
      4 C3         -0.2109   -2.0085   -0.6043 C.2       1 <0>         0.0660
      5 C4         -0.0023   -1.9413    0.7402 C.2       1 <0>         0.0812
      6 N2         -0.0011   -0.6029    1.0682 N.pl3     1 <0>        -0.3914
      7 C5          0.1919   -0.0343    2.4045 C.3       1 <0>         0.1100
      8 C6          1.6369   -0.2631    2.8523 C.3       1 <0>        -0.1881
      9 C7         -0.0985    1.4674    2.3665 C.3       1 <0>        -0.1961
     10 C8          0.1892   -3.0778    1.6630 C.ar      1 <0>         0.2675
     11 C9          0.2630   -2.8671    3.0458 C.ar      1 <0>        -0.2851
     12 C10         0.4424   -3.9620    3.8693 C.ar      1 <0>         0.2136
     13 N3          0.5385   -5.1690    3.3320 N.ar      1 <0>        -0.5353
     14 C11         0.4654   -5.3405    2.0201 C.ar      1 <0>         0.5808
     15 N4          0.2891   -4.3218    1.1939 N.ar      1 <0>        -0.5463
     16 N5          0.5709   -6.6208    1.5000 N.pl3     1 <0>        -0.6266
     17 C12         0.6353   -7.7169    2.3562 C.ar      1 <0>         0.1780
     18 C13         1.4179   -8.8172    2.0179 C.ar      1 <0>        -0.1472
     19 C14         1.4834   -9.9024    2.8618 C.ar      1 <0>        -0.0328
     20 C15         0.7633   -9.8987    4.0599 C.ar      1 <0>        -0.1445
     21 C16        -0.0213   -8.7920    4.3968 C.ar      1 <0>        -0.0643
     22 C17        -0.0784   -7.7077    3.5511 C.ar      1 <0>        -0.1197
     23 C18         0.8309  -11.0606    4.9667 C.2       1 <0>         0.5626
     24 O1          1.5134  -12.0228    4.6722 O.2       1 <0>        -0.5299
     25 N6          0.1360  -11.0555    6.1215 N.am      1 <0>        -0.6984
     26 C19         0.2030  -12.2092    7.0219 C.3       1 <0>         0.0757
     27 C20        -1.1075  -12.6996    7.6407 C.3       1 <0>        -0.1911
     28 C21        -0.0810  -11.9651    8.5053 C.3       1 <0>        -0.1871
     29 H1          0.7135    2.0013   -0.2137 H         1 <0>         0.1254
     30 H2         -0.8215    1.8521   -1.1023 H         1 <0>         0.1147
     31 H3         -0.8301    1.9873    0.6724 H         1 <0>         0.1414
     32 H4         -0.2667   -2.9110   -1.1949 H         1 <0>         0.2328
     33 H5         -0.4870   -0.5180    3.1067 H         1 <0>         0.1325
     34 H6          1.8190   -1.3324    2.9595 H         1 <0>         0.0832
     35 H7          2.3177    0.1485    2.1072 H         1 <0>         0.0770
     36 H8          1.8034    0.2316    3.8092 H         1 <0>         0.1064
     37 H9         -1.1455    1.6286    2.1096 H         1 <0>         0.0863
     38 H10         0.1066    1.9020    3.3449 H         1 <0>         0.1079
     39 H11         0.5364    1.9415    1.6180 H         1 <0>         0.0925
     40 H12         0.1820   -1.8724    3.4585 H         1 <0>         0.1588
     41 H13         0.5039   -3.8351    4.9401 H         1 <0>         0.1859
     42 H14         0.5998   -6.7532    0.5395 H         1 <0>         0.4297
     43 H15         1.9740   -8.8195    1.0921 H         1 <0>         0.1363
     44 H16         2.0902  -10.7561    2.5985 H         1 <0>         0.1456
     45 H17        -0.5788   -8.7860    5.3218 H         1 <0>         0.1302
     46 H18        -0.6812   -6.8506    3.8127 H         1 <0>         0.1373
     47 H19        -0.4086  -10.2879    6.3565 H         1 <0>         0.4003
     48 H20         0.9526  -12.9594    6.7698 H         1 <0>         0.1409
     49 H21        -2.0196  -12.1638    7.3779 H         1 <0>         0.0973
     50 H22        -1.2204  -13.7726    7.7957 H         1 <0>         0.1057
     51 H23         0.4815  -12.5549    9.2292 H         1 <0>         0.1068
     52 H24        -0.3177  -10.9461    8.8114 H         1 <0>         0.0975
     53 H25        -0.4908   -0.5162   -1.9886 H         1 <0>         0.4662
@<TRIPOS>BOND
     1    1    2 1
     2    1   29 1
     3    1   30 1
     4    1   31 1
     5    2    6 1
     6    2    3 2
     7    3    4 1
     8    3   53 1
     9    4    5 2
    10    4   32 1
    11    5    6 1
    12    5   10 1
    13    6    7 1
    14    7    8 1
    15    7    9 1
    16    7   33 1
    17    8   34 1
    18    8   35 1
    19    8   36 1
    20    9   37 1
    21    9   38 1
    22    9   39 1
    23   10   15 ar
    24   10   11 ar
    25   11   12 ar
    26   11   40 1
    27   12   13 ar
    28   12   41 1
    29   13   14 ar
    30   14   15 ar
    31   14   16 1
    32   16   17 1
    33   16   42 1
    34   17   22 ar
    35   17   18 ar
    36   18   19 ar
    37   18   43 1
    38   19   20 ar
    39   19   44 1
    40   20   21 ar
    41   20   23 1
    42   21   22 ar
    43   21   45 1
    44   22   46 1
    45   23   24 2
    46   23   25 am
    47   25   26 1
    48   25   47 1
    49   26   28 1
    50   26   27 1
    51   26   48 1
    52   27   28 1
    53   27   49 1
    54   27   50 1
    55   28   51 1
    56   28   52 1
@<TRIPOS>MOLECULE
CHEMBL487066
   52    55     0     0     0
SMALL
USER_CHARGES

@<TRIPOS>ATOM
      1 C1         -0.2935    1.5851   -0.1870 C.3       1 <0>        -0.0991
      2 C2         -0.2140    0.0846   -0.0722 C.2       1 <0>         0.2408
      3 N1         -0.3348   -0.7593   -1.0626 N.2       1 <0>        -0.4953
      4 C3         -0.2109   -2.0085   -0.6043 C.2       1 <0>         0.0608
      5 C4         -0.0023   -1.9413    0.7402 C.2       1 <0>        -0.0225
      6 N2         -0.0011   -0.6029    1.0682 N.pl3     1 <0>        -0.4386
      7 C5          0.1919   -0.0343    2.4044 C.3       1 <0>         0.1188
      8 C6          1.6369   -0.2631    2.8523 C.3       1 <0>        -0.1793
      9 C7         -0.0985    1.4674    2.3664 C.3       1 <0>        -0.1819
     10 C8          0.1892   -3.0778    1.6630 C.ar      1 <0>         0.3088
     11 C9          0.2630   -2.8671    3.0458 C.ar      1 <0>        -0.3006
     12 C10         0.4424   -3.9620    3.8694 C.ar      1 <0>         0.1973
     13 N3          0.5385   -5.1689    3.3320 N.ar      1 <0>        -0.5590
     14 C11         0.4654   -5.3405    2.0201 C.ar      1 <0>         0.5696
     15 N4          0.2891   -4.3218    1.1939 N.ar      1 <0>        -0.5518
     16 N5          0.5709   -6.6208    1.5000 N.pl3     1 <0>        -0.6357
     17 C12         0.6353   -7.7169    2.3562 C.ar      1 <0>         0.1977
     18 C13         1.4179   -8.8172    2.0181 C.ar      1 <0>        -0.1565
     19 C14         1.4834   -9.9024    2.8620 C.ar      1 <0>        -0.0321
     20 C15         0.7633   -9.8986    4.0600 C.ar      1 <0>        -0.1587
     21 C16        -0.0213   -8.7919    4.3970 C.ar      1 <0>        -0.0634
     22 C17        -0.0784   -7.7076    3.5512 C.ar      1 <0>        -0.1230
     23 C18         0.8309  -11.0605    4.9669 C.2       1 <0>         0.5666
     24 O1          1.5134  -12.0227    4.6723 O.2       1 <0>        -0.5356
     25 N6          0.1360  -11.0554    6.1217 N.am      1 <0>        -0.7006
     26 C19         0.2030  -12.2091    7.0221 C.3       1 <0>         0.0784
     27 C20        -1.1075  -12.6994    7.6409 C.3       1 <0>        -0.1926
     28 C21        -0.0810  -11.9649    8.5055 C.3       1 <0>        -0.1886
     29 H1          0.7135    2.0013   -0.2138 H         1 <0>         0.0845
     30 H2         -0.8215    1.8520   -1.1024 H         1 <0>         0.0905
     31 H3         -0.8301    1.9873    0.6723 H         1 <0>         0.1021
     32 H4         -0.2667   -2.9110   -1.1949 H         1 <0>         0.1813
     33 H5         -0.4870   -0.5180    3.1067 H         1 <0>         0.1016
     34 H6          2.3177    0.1485    2.1071 H         1 <0>         0.0680
     35 H7          1.8034    0.2316    3.8092 H         1 <0>         0.0837
     36 H8          1.8190   -1.3324    2.9595 H         1 <0>         0.0741
     37 H9         -1.1455    1.6286    2.1095 H         1 <0>         0.0772
     38 H10         0.1066    1.9020    3.3448 H         1 <0>         0.0834
     39 H11         0.5364    1.9415    1.6180 H         1 <0>         0.0871
     40 H12         0.1820   -1.8723    3.4585 H         1 <0>         0.1549
     41 H13         0.5039   -3.8350    4.9401 H         1 <0>         0.1738
     42 H14         0.5998   -6.7532    0.5396 H         1 <0>         0.4275
     43 H15         1.9740   -8.8195    1.0923 H         1 <0>         0.1345
     44 H16         2.0902  -10.7561    2.5987 H         1 <0>         0.1415
     45 H17        -0.5788   -8.7859    5.3219 H         1 <0>         0.1266
     46 H18        -0.6812   -6.8506    3.8128 H         1 <0>         0.1391
     47 H19        -0.4086  -10.2878    6.3566 H         1 <0>         0.4009
     48 H20         0.9526  -12.9592    6.7700 H         1 <0>         0.1397
     49 H21        -2.0196  -12.1636    7.3780 H         1 <0>         0.0973
     50 H22        -1.2204  -13.7724    7.7958 H         1 <0>         0.1040
     51 H23         0.4815  -12.5547    9.2293 H         1 <0>         0.1052
     52 H24        -0.3177  -10.9459    8.8115 H         1 <0>         0.0976
@<TRIPOS>BOND
     1    1    2 1
     2    1   29 1
     3    1   30 1
     4    1   31 1
     5    2    6 1
     6    2    3 2
     7    3    4 1
     8    4    5 2
     9    4   32 1
    10    5    6 1
    11    5   10 1
    12    6    7 1
    13    7    8 1
    14    7    9 1
    15    7   33 1
    16    8   34 1
    17    8   35 1
    18    8   36 1
    19    9   37 1
    20    9   38 1
    21    9   39 1
    22   10   15 ar
    23   10   11 ar
    24   11   12 ar
    25   11   40 1
    26   12   13 ar
    27   12   41 1
    28   13   14 ar
    29   14   15 ar
    30   14   16 1
    31   16   17 1
    32   16   42 1
    33   17   22 ar
    34   17   18 ar
    35   18   19 ar
    36   18   43 1
    37   19   20 ar
    38   19   44 1
    39   20   21 ar
    40   20   23 1
    41   21   22 ar
    42   21   45 1
    43   22   46 1
    44   23   24 2
    45   23   25 am
    46   25   26 1
    47   25   47 1
    48   26   28 1
    49   26   27 1
    50   26   48 1
    51   27   28 1
    52   27   49 1
    53   27   50 1
    54   28   51 1
    55   28   52 1
@<TRIPOS>MOLECULE
CHEMBL560817
   58    62     0     0     0
SMALL
USER_CHARGES

@<TRIPOS>ATOM
      1 C1         -0.6730    0.8727   -0.2476 C.3       1 <0>         0.0869
      2 N1          0.1975   -0.2996   -0.1286 N.pl3     1 <0>        -0.2378
      3 C2          0.9325   -0.8237   -1.1281 C.2       1 <0>         0.0254
      4 C3          1.6215   -1.8960   -0.6018 C.2       1 <0>        -0.1008
      5 C4          1.2309   -1.9750    0.7351 C.2       1 <0>        -0.0126
      6 N2          0.3800   -0.9829    0.9515 N.2       1 <0>        -0.2435
      7 C5          1.6854   -2.9732    1.7249 C.2       1 <0>         0.6113
      8 O1          2.4781   -3.8353    1.3988 O.2       1 <0>        -0.5286
      9 N3          1.2212   -2.9282    2.9894 N.am      1 <0>        -0.8398
     10 C6          2.5821   -2.7149   -1.4137 C.3       1 <0>        -0.0513
     11 C7          2.1260   -2.7508   -2.8725 C.3       1 <0>        -0.0656
     12 C8          1.7211   -1.3984   -3.3821 C.ar      1 <0>        -0.2101
     13 C9          1.1123   -0.4542   -2.5425 C.ar      1 <0>         0.2954
     14 N4          0.7318    0.7162   -3.0317 N.ar      1 <0>        -0.5552
     15 C10         0.9461    1.0046   -4.3088 C.ar      1 <0>         0.5607
     16 N5          1.5401    0.1448   -5.1240 N.ar      1 <0>        -0.5569
     17 C11         1.9333   -1.0478   -4.7021 C.ar      1 <0>         0.1956
     18 N6          0.5391    2.2331   -4.8020 N.pl3     1 <0>        -0.6401
     19 C12         0.6492    2.5097   -6.1710 C.ar      1 <0>         0.1355
     20 C13         0.3900    1.5139   -7.1035 C.ar      1 <0>        -0.0621
     21 C14         0.4989    1.7863   -8.4527 C.ar      1 <0>        -0.1634
     22 C15         0.8673    3.0563   -8.8772 C.ar      1 <0>         0.1799
     23 C16         1.1261    4.0522   -7.9445 C.ar      1 <0>        -0.1626
     24 C17         1.0120    3.7811   -6.5955 C.ar      1 <0>        -0.0981
     25 N7          0.9782    3.3323  -10.2447 N.pl3     1 <0>        -0.6455
     26 C18         1.4879    4.6294  -10.7157 C.3       1 <0>         0.1006
     27 C19         2.5924    4.3720  -11.7461 C.3       1 <0>        -0.0233
     28 N8          2.0751    3.5018  -12.8097 N.4       1 <0>        -0.3836
     29 C20         1.7356    2.1844  -12.2571 C.3       1 <0>        -0.0233
     30 C21         0.5940    2.3313  -11.2520 C.3       1 <0>         0.0993
     31 C22         3.0980    3.3447  -13.8522 C.3       1 <0>        -0.0471
     32 H1         -0.1017    1.7736   -0.0236 H         1 <0>         0.0920
     33 H2         -1.0639    0.9335   -1.2632 H         1 <0>         0.1028
     34 H3         -1.5009    0.7834    0.4557 H         1 <0>         0.1003
     35 H4          0.5887   -2.2403    3.2496 H         1 <0>         0.4082
     36 H5          1.5196   -3.5836    3.6392 H         1 <0>         0.4097
     37 H6          3.5760   -2.2710   -1.3556 H         1 <0>         0.0838
     38 H7          2.6160   -3.7305   -1.0194 H         1 <0>         0.1049
     39 H8          2.9421   -3.1295   -3.4878 H         1 <0>         0.0899
     40 H9          1.2772   -3.4290   -2.9599 H         1 <0>         0.0834
     41 H10         2.4139   -1.7370   -5.3807 H         1 <0>         0.1770
     42 H11         0.1778    2.9020   -4.1996 H         1 <0>         0.4243
     43 H12         0.1035    0.5263   -6.7734 H         1 <0>         0.1341
     44 H13         0.2980    1.0117   -9.1780 H         1 <0>         0.1253
     45 H14         1.4125    5.0398   -8.2746 H         1 <0>         0.1266
     46 H15         1.2090    4.5567   -5.8702 H         1 <0>         0.1305
     47 H16         0.6792    5.1944  -11.1790 H         1 <0>         0.0868
     48 H17         1.8953    5.1901   -9.8744 H         1 <0>         0.1257
     49 H18         2.9155    5.3197  -12.1768 H         1 <0>         0.1403
     50 H19         3.4382    3.8870  -11.2588 H         1 <0>         0.1323
     51 H20         1.4274    1.5201  -13.0644 H         1 <0>         0.1408
     52 H21         2.6074    1.7656  -11.7544 H         1 <0>         0.1324
     53 H22         0.4107    1.3735  -10.7651 H         1 <0>         0.1267
     54 H23        -0.3066    2.6603  -11.7704 H         1 <0>         0.0866
     55 H24         3.9927    2.8976  -13.4190 H         1 <0>         0.1216
     56 H25         2.7152    2.6989  -14.6424 H         1 <0>         0.1250
     57 H26         3.3452    4.3212  -14.2688 H         1 <0>         0.1249
     58 H27         1.2494    3.9193  -13.2122 H         1 <0>         0.4245
@<TRIPOS>BOND
     1    1    2 1
     2    1   32 1
     3    1   33 1
     4    1   34 1
     5    2    6 1
     6    2    3 1
     7    3   13 1
     8    3    4 2
     9    4    5 1
    10    4   10 1
    11    5    6 2
    12    5    7 1
    13    7    8 2
    14    7    9 am
    15    9   35 1
    16    9   36 1
    17   10   11 1
    18   10   37 1
    19   10   38 1
    20   11   12 1
    21   11   39 1
    22   11   40 1
    23   12   17 ar
    24   12   13 ar
    25   13   14 ar
    26   14   15 ar
    27   15   16 ar
    28   15   18 1
    29   16   17 ar
    30   17   41 1
    31   18   19 1
    32   18   42 1
    33   19   24 ar
    34   19   20 ar
    35   20   21 ar
    36   20   43 1
    37   21   22 ar
    38   21   44 1
    39   22   23 ar
    40   22   25 1
    41   23   24 ar
    42   23   45 1
    43   24   46 1
    44   25   30 1
    45   25   26 1
    46   26   27 1
    47   26   47 1
    48   26   48 1
    49   27   28 1
    50   27   49 1
    51   27   50 1
    52   28   29 1
    53   28   31 1
    54   28   58 1
    55   29   30 1
    56   29   51 1
    57   29   52 1
    58   30   53 1
    59   30   54 1
    60   31   55 1
    61   31   56 1
    62   31   57 1
@<TRIPOS>MOLECULE
CHEMBL560817
   57    61     0     0     0
SMALL
USER_CHARGES

@<TRIPOS>ATOM
      1 C1         -0.7869    1.5250   -0.1326 C.3       1 <0>         0.0871
      2 N1         -0.5998    0.0734   -0.0680 N.pl3     1 <0>        -0.2383
      3 C2         -0.3075   -0.7178   -1.1180 C.2       1 <0>         0.0331
      4 C3         -0.1932   -2.0038   -0.6336 C.2       1 <0>        -0.1041
      5 C4         -0.4548   -1.9157    0.7338 C.2       1 <0>        -0.0152
      6 N2         -0.6848   -0.6395    1.0049 N.2       1 <0>        -0.2483
      7 C5         -0.4671   -3.0342    1.6990 C.2       1 <0>         0.6125
      8 O1         -0.2331   -4.1657    1.3212 O.2       1 <0>        -0.5294
      9 N3         -0.7377   -2.8001    2.9984 N.am      1 <0>        -0.8412
     10 C6          0.1656   -3.1674   -1.5109 C.3       1 <0>        -0.0498
     11 C7         -0.3732   -2.9357   -2.9228 C.3       1 <0>        -0.0631
     12 C8         -0.1021   -1.5461   -3.4211 C.ar      1 <0>        -0.2200
     13 C9         -0.0921   -0.4472   -2.5496 C.ar      1 <0>         0.2901
     14 N4          0.1122    0.7714   -3.0263 N.ar      1 <0>        -0.5602
     15 C10         0.3295    0.9507   -4.3227 C.ar      1 <0>         0.5650
     16 N5          0.3502   -0.0681   -5.1701 N.ar      1 <0>        -0.5515
     17 C11         0.1402   -1.3105   -4.7613 C.ar      1 <0>         0.1985
     18 N6          0.5391    2.2331   -4.8020 N.pl3     1 <0>        -0.6342
     19 C12         0.6523    2.4558   -6.1805 C.ar      1 <0>         0.0997
     20 C13        -0.1428    1.7413   -7.0669 C.ar      1 <0>        -0.0554
     21 C14        -0.0309    1.9605   -8.4255 C.ar      1 <0>        -0.1810
     22 C15         0.8765    2.8958   -8.9056 C.ar      1 <0>         0.2111
     23 C16         1.6713    3.6107   -8.0191 C.ar      1 <0>        -0.1809
     24 C17         1.5556    3.3952   -6.6601 C.ar      1 <0>        -0.0908
     25 N7          0.9902    3.1177  -10.2827 N.pl3     1 <0>        -0.6316
     26 C18         2.0300    4.0081  -10.8206 C.3       1 <0>         0.1266
     27 C19         2.7846    3.2628  -11.9266 C.3       1 <0>         0.0382
     28 N8          1.8237    2.7603  -12.9176 N.3       1 <0>        -0.5426
     29 C20         0.9048    1.7821  -12.3204 C.3       1 <0>         0.0379
     30 C21         0.0770    2.4619  -11.2310 C.3       1 <0>         0.1258
     31 C22         2.5166    2.1899  -14.0806 C.3       1 <0>         0.0242
     32 H1          0.1707    2.0220    0.0223 H         1 <0>         0.0916
     33 H2         -1.1833    1.7971   -1.1109 H         1 <0>         0.1043
     34 H3         -1.4873    1.8359    0.6425 H         1 <0>         0.0985
     35 H4         -0.9244   -1.8973    3.2999 H         1 <0>         0.4079
     36 H5         -0.7457   -3.5345    3.6321 H         1 <0>         0.4081
     37 H6          1.2500   -3.2717   -1.5493 H         1 <0>         0.0824
     38 H7         -0.2709   -4.0784   -1.1013 H         1 <0>         0.1022
     39 H8          0.0941   -3.6505   -3.6002 H         1 <0>         0.0882
     40 H9         -1.4498   -3.1061   -2.9216 H         1 <0>         0.0806
     41 H10         0.1586   -2.1287   -5.4660 H         1 <0>         0.1753
     42 H11         0.6076    2.9770   -4.1833 H         1 <0>         0.4203
     43 H12        -0.8484    1.0140   -6.6935 H         1 <0>         0.1269
     44 H13        -0.6488    1.4043   -9.1149 H         1 <0>         0.1247
     45 H14         2.3769    4.3381   -8.3924 H         1 <0>         0.1257
     46 H15         2.1706    3.9542   -5.9705 H         1 <0>         0.1231
     47 H16         1.5669    4.9044  -11.2332 H         1 <0>         0.0699
     48 H17         2.7233    4.2834  -10.0258 H         1 <0>         0.0861
     49 H18         3.4847    3.9432  -12.4113 H         1 <0>         0.0857
     50 H19         3.3316    2.4255  -11.4932 H         1 <0>         0.0386
     51 H20         0.2415    1.3886  -13.0908 H         1 <0>         0.0861
     52 H21         1.4779    0.9654  -11.8815 H         1 <0>         0.0384
     53 H22        -0.5204    1.7155  -10.7074 H         1 <0>         0.0870
     54 H23        -0.5774    3.2068  -11.6838 H         1 <0>         0.0697
     55 H24         3.1495    1.3635  -13.7571 H         1 <0>         0.0259
     56 H25         1.7819    1.8254  -14.7985 H         1 <0>         0.0704
     57 H26         3.1326    2.9575  -14.5490 H         1 <0>         0.0706
@<TRIPOS>BOND
     1    1    2 1
     2    1   32 1
     3    1   33 1
     4    1   34 1
     5    2    6 1
     6    2    3 1
     7    3   13 1
     8    3    4 2
     9    4    5 1
    10    4   10 1
    11    5    6 2
    12    5    7 1
    13    7    8 2
    14    7    9 am
    15    9   35 1
    16    9   36 1
    17   10   11 1
    18   10   37 1
    19   10   38 1
    20   11   12 1
    21   11   39 1
    22   11   40 1
    23   12   17 ar
    24   12   13 ar
    25   13   14 ar
    26   14   15 ar
    27   15   16 ar
    28   15   18 1
    29   16   17 ar
    30   17   41 1
    31   18   19 1
    32   18   42 1
    33   19   24 ar
    34   19   20 ar
    35   20   21 ar
    36   20   43 1
    37   21   22 ar
    38   21   44 1
    39   22   23 ar
    40   22   25 1
    41   23   24 ar
    42   23   45 1
    43   24   46 1
    44   25   30 1
    45   25   26 1
    46   26   27 1
    47   26   47 1
    48   26   48 1
    49   27   28 1
    50   27   49 1
    51   27   50 1
    52   28   29 1
    53   28   31 1
    54   29   30 1
    55   29   51 1
    56   29   52 1
    57   30   53 1
    58   30   54 1
    59   31   55 1
    60   31   56 1
    61   31   57 1
@<TRIPOS>MOLECULE
CHEMBL488256
   50    53     0     0     0
SMALL
USER_CHARGES

@<TRIPOS>ATOM
      1 C1          0.8759    1.5869   -0.0157 C.3       1 <0>        -0.1165
      2 C2          0.5632    0.1127   -0.0252 C.cat     1 <0>         0.3299
      3 N1          0.0949   -0.5567   -1.0451 N.pl3     1 <0>        -0.4770
      4 C3         -0.0642   -1.8390   -0.7043 C.2       1 <0>         0.0654
      5 C4          0.3243   -1.9774    0.5940 C.2       1 <0>         0.0829
      6 N2          0.7269   -0.7289    1.0157 N.pl3     1 <0>        -0.3920
      7 C5          1.2343   -0.3807    2.3452 C.3       1 <0>         0.1099
      8 C6          0.0577   -0.1359    3.2921 C.3       1 <0>        -0.2081
      9 C7         -0.1027    1.2714    3.8706 C.3       1 <0>        -0.1663
     10 C8          0.3788    0.1270    4.7647 C.3       1 <0>        -0.1521
     11 C9          0.3192   -3.2204    1.3906 C.ar      1 <0>         0.2651
     12 C10         0.6174   -3.1901    2.7589 C.ar      1 <0>        -0.2816
     13 C11         0.5995   -4.3791    3.4626 C.ar      1 <0>         0.2138
     14 N3          0.3034   -5.5037    2.8284 N.ar      1 <0>        -0.5352
     15 C12         0.0251   -5.5045    1.5328 C.ar      1 <0>         0.5803
     16 N4          0.0253   -4.3892    0.8204 N.ar      1 <0>        -0.5467
     17 N5         -0.2794   -6.7039    0.9088 N.pl3     1 <0>        -0.6264
     18 C13        -0.4060   -7.8681    1.6619 C.ar      1 <0>         0.1776
     19 C14        -0.0173   -9.0905    1.1215 C.ar      1 <0>        -0.1484
     20 C15        -0.1415  -10.2432    1.8632 C.ar      1 <0>        -0.0337
     21 C16        -0.6582  -10.1852    3.1608 C.ar      1 <0>        -0.1460
     22 C17        -1.0472   -8.9560    3.7007 C.ar      1 <0>        -0.0643
     23 C18        -0.9156   -7.8063    2.9557 C.ar      1 <0>        -0.1214
     24 C19        -0.7932  -11.4191    3.9585 C.2       1 <0>         0.5557
     25 O1         -0.4548  -12.4877    3.4874 O.2       1 <0>        -0.5318
     26 N6         -1.2916  -11.3616    5.2094 N.am      1 <0>        -0.7311
     27 C20        -1.4256  -12.5867    6.0015 C.3       1 <0>         0.0851
     28 H1          1.9092    1.7411   -0.3268 H         1 <0>         0.1255
     29 H2          0.2081    2.1045   -0.7042 H         1 <0>         0.1221
     30 H3          0.7369    1.9813    0.9909 H         1 <0>         0.1179
     31 H4         -0.4353   -2.6258   -1.3444 H         1 <0>         0.2332
     32 H5          1.8439   -1.1995    2.7273 H         1 <0>         0.1330
     33 H6          1.8403    0.5228    2.2777 H         1 <0>         0.1274
     34 H7         -0.8509   -0.6944    3.0670 H         1 <0>         0.1206
     35 H8          0.6301    2.0228    3.5766 H         1 <0>         0.1053
     36 H9         -1.1169    1.6390    4.0261 H         1 <0>         0.1078
     37 H10        -0.3187   -0.2583    5.5085 H         1 <0>         0.1123
     38 H11         1.4283    0.1255    5.0590 H         1 <0>         0.1091
     39 H12         0.8560   -2.2594    3.2522 H         1 <0>         0.1599
     40 H13         0.8249   -4.3914    4.5187 H         1 <0>         0.1855
     41 H14        -0.4044   -6.7323   -0.0527 H         1 <0>         0.4295
     42 H15         0.3819   -9.1346    0.1190 H         1 <0>         0.1358
     43 H16         0.1596  -11.1914    1.4431 H         1 <0>         0.1449
     44 H17        -1.4468   -8.9080    4.7029 H         1 <0>         0.1311
     45 H18        -1.2122   -6.8557    3.3738 H         1 <0>         0.1385
     46 H19        -1.5615  -10.5091    5.5852 H         1 <0>         0.4006
     47 H20        -2.0878  -13.2821    5.4859 H         1 <0>         0.0636
     48 H21        -0.4452  -13.0457    6.1295 H         1 <0>         0.0635
     49 H22        -1.8433  -12.3438    6.9785 H         1 <0>         0.0787
     50 H23        -0.1067   -0.1804   -1.9161 H         1 <0>         0.4668
@<TRIPOS>BOND
     1    1    2 1
     2    1   28 1
     3    1   29 1
     4    1   30 1
     5    2    6 1
     6    2    3 2
     7    3    4 1
     8    3   50 1
     9    4    5 2
    10    4   31 1
    11    5    6 1
    12    5   11 1
    13    6    7 1
    14    7    8 1
    15    7   32 1
    16    7   33 1
    17    8   10 1
    18    8    9 1
    19    8   34 1
    20    9   10 1
    21    9   35 1
    22    9   36 1
    23   10   37 1
    24   10   38 1
    25   11   16 ar
    26   11   12 ar
    27   12   13 ar
    28   12   39 1
    29   13   14 ar
    30   13   40 1
    31   14   15 ar
    32   15   16 ar
    33   15   17 1
    34   17   18 1
    35   17   41 1
    36   18   23 ar
    37   18   19 ar
    38   19   20 ar
    39   19   42 1
    40   20   21 ar
    41   20   43 1
    42   21   22 ar
    43   21   24 1
    44   22   23 ar
    45   22   44 1
    46   23   45 1
    47   24   25 2
    48   24   26 am
    49   26   27 1
    50   26   46 1
    51   27   47 1
    52   27   48 1
    53   27   49 1
@<TRIPOS>MOLECULE
CHEMBL488256
   49    52     0     0     0
SMALL
USER_CHARGES

@<TRIPOS>ATOM
      1 C1          0.8759    1.5869   -0.0157 C.3       1 <0>        -0.0750
      2 C2          0.5632    0.1127   -0.0252 C.2       1 <0>         0.2408
      3 N1          0.0949   -0.5567   -1.0451 N.2       1 <0>        -0.4941
      4 C3         -0.0642   -1.8390   -0.7043 C.2       1 <0>         0.0610
      5 C4          0.3243   -1.9774    0.5940 C.2       1 <0>        -0.0215
      6 N2          0.7269   -0.7289    1.0157 N.pl3     1 <0>        -0.4394
      7 C5          1.2343   -0.3807    2.3452 C.3       1 <0>         0.1215
      8 C6          0.0577   -0.1359    3.2921 C.3       1 <0>        -0.1859
      9 C7         -0.1027    1.2714    3.8706 C.3       1 <0>        -0.1700
     10 C8          0.3788    0.1270    4.7647 C.3       1 <0>        -0.1660
     11 C9          0.3192   -3.2204    1.3906 C.ar      1 <0>         0.3069
     12 C10         0.6174   -3.1901    2.7589 C.ar      1 <0>        -0.2980
     13 C11         0.5995   -4.3791    3.4626 C.ar      1 <0>         0.1977
     14 N3          0.3034   -5.5037    2.8284 N.ar      1 <0>        -0.5588
     15 C12         0.0251   -5.5045    1.5328 C.ar      1 <0>         0.5692
     16 N4          0.0253   -4.3892    0.8204 N.ar      1 <0>        -0.5520
     17 N5         -0.2794   -6.7039    0.9088 N.pl3     1 <0>        -0.6353
     18 C13        -0.4060   -7.8681    1.6619 C.ar      1 <0>         0.1971
     19 C14        -0.0173   -9.0905    1.1215 C.ar      1 <0>        -0.1577
     20 C15        -0.1415  -10.2432    1.8632 C.ar      1 <0>        -0.0330
     21 C16        -0.6582  -10.1852    3.1608 C.ar      1 <0>        -0.1602
     22 C17        -1.0472   -8.9560    3.7007 C.ar      1 <0>        -0.0634
     23 C18        -0.9156   -7.8063    2.9557 C.ar      1 <0>        -0.1248
     24 C19        -0.7932  -11.4191    3.9585 C.2       1 <0>         0.5598
     25 O1         -0.4548  -12.4877    3.4874 O.2       1 <0>        -0.5378
     26 N6         -1.2916  -11.3616    5.2094 N.am      1 <0>        -0.7334
     27 C20        -1.4256  -12.5867    6.0015 C.3       1 <0>         0.0868
     28 H1          1.9092    1.7411   -0.3268 H         1 <0>         0.0856
     29 H2          0.2081    2.1045   -0.7042 H         1 <0>         0.0966
     30 H3          0.7369    1.9813    0.9909 H         1 <0>         0.0771
     31 H4         -0.4353   -2.6258   -1.3444 H         1 <0>         0.1818
     32 H5          1.8439   -1.1995    2.7273 H         1 <0>         0.1046
     33 H6          1.8403    0.5228    2.2777 H         1 <0>         0.1025
     34 H7         -0.8509   -0.6944    3.0670 H         1 <0>         0.1132
     35 H8          0.6301    2.0228    3.5766 H         1 <0>         0.0998
     36 H9         -1.1169    1.6390    4.0261 H         1 <0>         0.0998
     37 H10        -0.3187   -0.2583    5.5085 H         1 <0>         0.1026
     38 H11         1.4283    0.1255    5.0590 H         1 <0>         0.1013
     39 H12         0.8560   -2.2594    3.2522 H         1 <0>         0.1561
     40 H13         0.8249   -4.3914    4.5187 H         1 <0>         0.1735
     41 H14        -0.4044   -6.7323   -0.0527 H         1 <0>         0.4274
     42 H15         0.3819   -9.1346    0.1190 H         1 <0>         0.1340
     43 H16         0.1596  -11.1914    1.4431 H         1 <0>         0.1407
     44 H17        -1.4468   -8.9080    4.7029 H         1 <0>         0.1275
     45 H18        -1.2122   -6.8557    3.3738 H         1 <0>         0.1404
     46 H19        -1.5615  -10.5091    5.5852 H         1 <0>         0.4012
     47 H20        -2.0878  -13.2821    5.4859 H         1 <0>         0.0616
     48 H21        -0.4452  -13.0457    6.1295 H         1 <0>         0.0615
     49 H22        -1.8433  -12.3438    6.9785 H         1 <0>         0.0767
@<TRIPOS>BOND
     1    1    2 1
     2    1   28 1
     3    1   29 1
     4    1   30 1
     5    2    6 1
     6    2    3 2
     7    3    4 1
     8    4    5 2
     9    4   31 1
    10    5    6 1
    11    5   11 1
    12    6    7 1
    13    7    8 1
    14    7   32 1
    15    7   33 1
    16    8   10 1
    17    8    9 1
    18    8   34 1
    19    9   10 1
    20    9   35 1
    21    9   36 1
    22   10   37 1
    23   10   38 1
    24   11   16 ar
    25   11   12 ar
    26   12   13 ar
    27   12   39 1
    28   13   14 ar
    29   13   40 1
    30   14   15 ar
    31   15   16 ar
    32   15   17 1
    33   17   18 1
    34   17   41 1
    35   18   23 ar
    36   18   19 ar
    37   19   20 ar
    38   19   42 1
    39   20   21 ar
    40   20   43 1
    41   21   22 ar
    42   21   24 1
    43   22   23 ar
    44   22   44 1
    45   23   45 1
    46   24   25 2
    47   24   26 am
    48   26   27 1
    49   26   46 1
    50   27   47 1
    51   27   48 1
    52   27   49 1
@<TRIPOS>MOLECULE
CHEMBL488257
   53    56     0     0     0
SMALL
USER_CHARGES

@<TRIPOS>ATOM
      1 C1         -1.1241    1.2075    0.2509 C.3       1 <0>        -0.1280
      2 C2         -0.7198   -0.2416    0.1620 C.cat     1 <0>         0.3247
      3 N1         -0.9839   -1.0429   -0.8359 N.pl3     1 <0>        -0.4765
      4 C3         -0.4776   -2.2537   -0.5842 C.2       1 <0>         0.0655
      5 C4          0.1335   -2.2062    0.6323 C.2       1 <0>         0.0820
      6 N2         -0.0223   -0.9183    1.0969 N.pl3     1 <0>        -0.3880
      7 C5          0.4736   -0.3855    2.3683 C.3       1 <0>         0.1102
      8 C6          0.2986    1.1468    2.4033 C.3       1 <0>        -0.1686
      9 C7          1.5597    1.6563    3.1443 C.3       1 <0>        -0.1237
     10 C8          2.6709    0.7169    2.6135 C.3       1 <0>        -0.1286
     11 C9          1.9819   -0.6589    2.5019 C.3       1 <0>        -0.1451
     12 C10         0.8293   -3.3145    1.3159 C.ar      1 <0>         0.2650
     13 C11         1.2205   -3.1907    2.6553 C.ar      1 <0>        -0.2843
     14 C12         1.8685   -4.2551    3.2523 C.ar      1 <0>         0.2115
     15 N3          2.0990   -5.3524    2.5469 N.ar      1 <0>        -0.5345
     16 C13         1.7182   -5.4434    1.2810 C.ar      1 <0>         0.5802
     17 N4          1.0904   -4.4512    0.6702 N.ar      1 <0>        -0.5464
     18 N5          1.9795   -6.6099    0.5798 N.pl3     1 <0>        -0.6289
     19 C14         2.5342   -7.7064    1.2347 C.ar      1 <0>         0.1766
     20 C15         3.4930   -8.4858    0.5940 C.ar      1 <0>        -0.1448
     21 C16         4.0429   -9.5705    1.2383 C.ar      1 <0>        -0.0353
     22 C17         3.6378   -9.8888    2.5378 C.ar      1 <0>        -0.1431
     23 C18         2.6750   -9.1038    3.1786 C.ar      1 <0>        -0.0655
     24 C19         2.1328   -8.0173    2.5307 C.ar      1 <0>        -0.1165
     25 C20         4.2249  -11.0513    3.2313 C.2       1 <0>         0.5555
     26 O1          5.0620  -11.7335    2.6725 O.2       1 <0>        -0.5314
     27 N6          3.8333  -11.3569    4.4842 N.am      1 <0>        -0.7310
     28 C21         4.4163  -12.5111    5.1728 C.3       1 <0>         0.0850
     29 H1         -0.2999    1.8360   -0.0866 H         1 <0>         0.1290
     30 H2         -1.9954    1.3810   -0.3806 H         1 <0>         0.1165
     31 H3         -1.3693    1.4536    1.2840 H         1 <0>         0.1316
     32 H4         -0.5419   -3.1167   -1.2303 H         1 <0>         0.2328
     33 H5         -0.0638   -0.8425    3.1993 H         1 <0>         0.1322
     34 H6          0.2620    1.5498    1.3912 H         1 <0>         0.1068
     35 H7         -0.6024    1.4154    2.9547 H         1 <0>         0.1005
     36 H8          1.7710    2.6924    2.8799 H         1 <0>         0.0885
     37 H9          1.4444    1.5475    4.2227 H         1 <0>         0.0837
     38 H10         3.0174    1.0504    1.6354 H         1 <0>         0.0737
     39 H11         3.5012    0.6717    3.3183 H         1 <0>         0.0869
     40 H12         2.1767   -1.2478    3.3982 H         1 <0>         0.1057
     41 H13         2.3450   -1.1880    1.6208 H         1 <0>         0.0816
     42 H14         1.0207   -2.2847    3.2081 H         1 <0>         0.1620
     43 H15         2.1840   -4.1930    4.2833 H         1 <0>         0.1848
     44 H16         1.7759   -6.6626   -0.3671 H         1 <0>         0.4293
     45 H17         3.8055   -8.2394   -0.4100 H         1 <0>         0.1357
     46 H18         4.7863  -10.1754    0.7404 H         1 <0>         0.1450
     47 H19         2.3600   -9.3471    4.1825 H         1 <0>         0.1313
     48 H20         1.3919   -7.4079    3.0267 H         1 <0>         0.1333
     49 H21         3.1655  -10.8126    4.9300 H         1 <0>         0.4007
     50 H22         5.4944  -12.3760    5.2595 H         1 <0>         0.0636
     51 H23         3.9800  -12.5989    6.1678 H         1 <0>         0.0788
     52 H24         4.2082  -13.4170    4.6036 H         1 <0>         0.0637
     53 H25        -1.4729   -0.7966   -1.6367 H         1 <0>         0.4663
@<TRIPOS>BOND
     1    1    2 1
     2    1   29 1
     3    1   30 1
     4    1   31 1
     5    2    6 1
     6    2    3 2
     7    3    4 1
     8    3   53 1
     9    4    5 2
    10    4   32 1
    11    5    6 1
    12    5   12 1
    13    6    7 1
    14    7   11 1
    15    7    8 1
    16    7   33 1
    17    8    9 1
    18    8   34 1
    19    8   35 1
    20    9   10 1
    21    9   36 1
    22    9   37 1
    23   10   11 1
    24   10   38 1
    25   10   39 1
    26   11   40 1
    27   11   41 1
    28   12   17 ar
    29   12   13 ar
    30   13   14 ar
    31   13   42 1
    32   14   15 ar
    33   14   43 1
    34   15   16 ar
    35   16   17 ar
    36   16   18 1
    37   18   19 1
    38   18   44 1
    39   19   24 ar
    40   19   20 ar
    41   20   21 ar
    42   20   45 1
    43   21   22 ar
    44   21   46 1
    45   22   23 ar
    46   22   25 1
    47   23   24 ar
    48   23   47 1
    49   24   48 1
    50   25   26 2
    51   25   27 am
    52   27   28 1
    53   27   49 1
    54   28   50 1
    55   28   51 1
    56   28   52 1
@<TRIPOS>MOLECULE
CHEMBL488257
   52    55     0     0     0
SMALL
USER_CHARGES

@<TRIPOS>ATOM
      1 C1         -1.1241    1.2075    0.2509 C.3       1 <0>        -0.0857
      2 C2         -0.7198   -0.2416    0.1620 C.2       1 <0>         0.2365
      3 N1         -0.9839   -1.0429   -0.8360 N.2       1 <0>        -0.4935
      4 C3         -0.4776   -2.2537   -0.5842 C.2       1 <0>         0.0592
      5 C4          0.1335   -2.2062    0.6323 C.2       1 <0>        -0.0208
      6 N2         -0.0223   -0.9183    1.0969 N.pl3     1 <0>        -0.4360
      7 C5          0.4735   -0.3855    2.3683 C.3       1 <0>         0.1223
      8 C6          0.2986    1.1468    2.4033 C.3       1 <0>        -0.1623
      9 C7          1.5597    1.6563    3.1443 C.3       1 <0>        -0.1231
     10 C8          2.6709    0.7169    2.6135 C.3       1 <0>        -0.1260
     11 C9          1.9819   -0.6589    2.5020 C.3       1 <0>        -0.1403
     12 C10         0.8293   -3.3145    1.3160 C.ar      1 <0>         0.3068
     13 C11         1.2205   -3.1907    2.6553 C.ar      1 <0>        -0.2991
     14 C12         1.8684   -4.2551    3.2523 C.ar      1 <0>         0.1951
     15 N3          2.0990   -5.3524    2.5469 N.ar      1 <0>        -0.5581
     16 C13         1.7182   -5.4434    1.2810 C.ar      1 <0>         0.5690
     17 N4          1.0904   -4.4512    0.6702 N.ar      1 <0>        -0.5518
     18 N5          1.9795   -6.6099    0.5798 N.pl3     1 <0>        -0.6383
     19 C14         2.5342   -7.7064    1.2347 C.ar      1 <0>         0.1962
     20 C15         3.4930   -8.4858    0.5940 C.ar      1 <0>        -0.1537
     21 C16         4.0429   -9.5705    1.2384 C.ar      1 <0>        -0.0348
     22 C17         3.6378   -9.8888    2.5378 C.ar      1 <0>        -0.1569
     23 C18         2.6750   -9.1037    3.1786 C.ar      1 <0>        -0.0647
     24 C19         2.1328   -8.0173    2.5307 C.ar      1 <0>        -0.1195
     25 C20         4.2249  -11.0513    3.2314 C.2       1 <0>         0.5596
     26 O1          5.0620  -11.7335    2.6726 O.2       1 <0>        -0.5373
     27 N6          3.8333  -11.3569    4.4842 N.am      1 <0>        -0.7332
     28 C21         4.4162  -12.5111    5.1729 C.3       1 <0>         0.0867
     29 H1         -0.2999    1.8360   -0.0865 H         1 <0>         0.0890
     30 H2         -1.9954    1.3810   -0.3806 H         1 <0>         0.0920
     31 H3         -1.3693    1.4536    1.2840 H         1 <0>         0.0916
     32 H4         -0.5419   -3.1167   -1.2303 H         1 <0>         0.1811
     33 H5         -0.0638   -0.8425    3.1993 H         1 <0>         0.0991
     34 H6          0.2620    1.5498    1.3912 H         1 <0>         0.1092
     35 H7         -0.6025    1.4154    2.9547 H         1 <0>         0.0853
     36 H8          1.7709    2.6924    2.8799 H         1 <0>         0.0777
     37 H9          1.4444    1.5475    4.2227 H         1 <0>         0.0736
     38 H10         3.0174    1.0504    1.6354 H         1 <0>         0.0690
     39 H11         3.5011    0.6717    3.3184 H         1 <0>         0.0747
     40 H12         2.1766   -1.2478    3.3983 H         1 <0>         0.0887
     41 H13         2.3450   -1.1879    1.6209 H         1 <0>         0.0764
     42 H14         1.0207   -2.2847    3.2081 H         1 <0>         0.1577
     43 H15         2.1840   -4.1930    4.2833 H         1 <0>         0.1726
     44 H16         1.7759   -6.6626   -0.3671 H         1 <0>         0.4272
     45 H17         3.8055   -8.2394   -0.4100 H         1 <0>         0.1340
     46 H18         4.7863  -10.1754    0.7404 H         1 <0>         0.1409
     47 H19         2.3600   -9.3471    4.1826 H         1 <0>         0.1277
     48 H20         1.3918   -7.4079    3.0268 H         1 <0>         0.1348
     49 H21         3.1655  -10.8126    4.9300 H         1 <0>         0.4012
     50 H22         4.2081  -13.4170    4.6036 H         1 <0>         0.0617
     51 H23         5.4944  -12.3760    5.2595 H         1 <0>         0.0616
     52 H24         3.9799  -12.5989    6.1679 H         1 <0>         0.0769
@<TRIPOS>BOND
     1    1    2 1
     2    1   29 1
     3    1   30 1
     4    1   31 1
     5    2    6 1
     6    2    3 2
     7    3    4 1
     8    4    5 2
     9    4   32 1
    10    5    6 1
    11    5   12 1
    12    6    7 1
    13    7   11 1
    14    7    8 1
    15    7   33 1
    16    8    9 1
    17    8   34 1
    18    8   35 1
    19    9   10 1
    20    9   36 1
    21    9   37 1
    22   10   11 1
    23   10   38 1
    24   10   39 1
    25   11   40 1
    26   11   41 1
    27   12   17 ar
    28   12   13 ar
    29   13   14 ar
    30   13   42 1
    31   14   15 ar
    32   14   43 1
    33   15   16 ar
    34   16   17 ar
    35   16   18 1
    36   18   19 1
    37   18   44 1
    38   19   24 ar
    39   19   20 ar
    40   20   21 ar
    41   20   45 1
    42   21   22 ar
    43   21   46 1
    44   22   23 ar
    45   22   25 1
    46   23   24 ar
    47   23   47 1
    48   24   48 1
    49   25   26 2
    50   25   27 am
    51   27   28 1
    52   27   49 1
    53   28   50 1
    54   28   51 1
    55   28   52 1
@<TRIPOS>MOLECULE
CHEMBL75953
   53    59     0     0     0
SMALL
USER_CHARGES

@<TRIPOS>ATOM
      1 C1         -0.0178    1.4617    0.0101 C.3       1 <0>         0.0628
      2 N1          0.0021   -0.0041    0.0020 N.pl3     1 <0>        -0.4475
      3 C2         -0.0181   -0.7472   -1.1476 C.2       1 <0>         0.0425
      4 C3         -0.1467   -2.0481   -0.8404 C.2       1 <0>        -0.1871
      5 C4         -0.1914   -2.1337    0.6182 C.ar      1 <0>        -0.1134
      6 C5          0.0237   -0.8289    1.0943 C.ar      1 <0>         0.0986
      7 C6          0.2540   -0.6686    2.4738 C.ar      1 <0>         0.0538
      8 C7         -0.1746   -1.6963    3.3546 C.ar      1 <0>        -0.0222
      9 C8         -0.4524   -2.9791    2.8482 C.ar      1 <0>        -0.1458
     10 C9         -0.4320   -3.1959    1.5094 C.ar      1 <0>        -0.0398
     11 C10        -0.3181   -1.4139    4.7298 C.ar      1 <0>         0.1770
     12 C11         0.1679   -0.2028    5.2495 C.ar      1 <0>        -0.0479
     13 C12        -0.1366   -0.2238    6.6914 C.ar      1 <0>        -0.1322
     14 C13         0.0794    0.6717    7.7402 C.ar      1 <0>        -0.0111
     15 C14        -0.3183    0.3458    9.0177 C.ar      1 <0>        -0.2264
     16 C15        -0.9431   -0.8721    9.2727 C.ar      1 <0>         0.1719
     17 C16        -1.1735   -1.7633    8.2407 C.ar      1 <0>        -0.1791
     18 C17        -0.7724   -1.4497    6.9468 C.ar      1 <0>         0.1740
     19 N2         -0.8670   -2.1450    5.7569 N.pl3     1 <0>        -0.5896
     20 H1         -1.2694   -3.0195    5.6611 H         1 <0>         0.4244
     21 O1         -1.3238   -1.1879   10.5388 O.3       1 <0>        -0.3043
     22 C18        -1.0516   -0.2236   11.5577 C.3       1 <0>         0.1015
     23 C19        -1.5404   -0.7435   12.8850 C.ar      1 <0>        -0.0996
     24 C20        -2.8335   -0.4801   13.2967 C.ar      1 <0>        -0.0945
     25 C21        -3.2819   -0.9570   14.5142 C.ar      1 <0>        -0.1233
     26 C22        -2.4374   -1.6978   15.3198 C.ar      1 <0>        -0.1082
     27 C23        -1.1446   -1.9620   14.9077 C.ar      1 <0>        -0.1233
     28 C24        -0.6976   -1.4887   13.6882 C.ar      1 <0>        -0.0946
     29 C25         0.8157    0.7059    4.4005 C.ar      1 <0>        -0.0735
     30 C26         0.9315    0.4323    3.0268 C.ar      1 <0>        -0.1698
     31 C27         1.8959    1.4212    2.5159 C.2       1 <0>         0.5828
     32 O2          2.4829    1.3686    1.4559 O.2       1 <0>        -0.4585
     33 N3          2.0429    2.3844    3.4424 N.am      1 <0>        -0.6861
     34 C28         1.4433    2.0292    4.5933 C.2       1 <0>         0.5803
     35 O3          1.4261    2.6902    5.6110 O.2       1 <0>        -0.4562
     36 H2          1.0048    1.8389    0.0023 H         1 <0>         0.0862
     37 H3         -0.5450    1.8227   -0.8730 H         1 <0>         0.0900
     38 H4         -0.5280    1.8132    0.9069 H         1 <0>         0.0773
     39 H5          0.0622   -0.3464   -2.1485 H         1 <0>         0.1746
     40 H6         -0.2072   -2.8728   -1.5375 H         1 <0>         0.1530
     41 H7         -0.6781   -3.7871    3.5242 H         1 <0>         0.1294
     42 H8         -0.6041   -4.1915    1.1273 H         1 <0>         0.1320
     43 H9          0.5546    1.6243    7.5515 H         1 <0>         0.1423
     44 H10        -0.1415    1.0366    9.8275 H         1 <0>         0.1355
     45 H11        -1.6644   -2.7055    8.4401 H         1 <0>         0.1364
     46 H12         0.0223   -0.0445   11.6108 H         1 <0>         0.0753
     47 H13        -1.5643    0.7089   11.3217 H         1 <0>         0.0754
     48 H14        -3.4933    0.0987   12.6673 H         1 <0>         0.1248
     49 H15        -4.2919   -0.7506   14.8362 H         1 <0>         0.1259
     50 H16        -2.7875   -2.0698   16.2714 H         1 <0>         0.1249
     51 H17        -0.4847   -2.5405   15.5372 H         1 <0>         0.1260
     52 H18         0.3112   -1.6983   13.3646 H         1 <0>         0.1248
     53 H19         2.5070    3.2211    3.2926 H         1 <0>         0.4306
@<TRIPOS>BOND
     1    1    2 1
     2    1   36 1
     3    1   37 1
     4    1   38 1
     5    2    6 1
     6    2    3 1
     7    3    4 2
     8    3   39 1
     9    4    5 1
    10    4   40 1
    11    5   10 ar
    12    5    6 ar
    13    6    7 ar
    14    7   30 ar
    15    7    8 ar
    16    8    9 ar
    17    8   11 ar
    18    9   10 ar
    19    9   41 1
    20   10   42 1
    21   11   19 1
    22   11   12 ar
    23   12   13 1
    24   12   29 ar
    25   13   18 ar
    26   13   14 ar
    27   14   15 ar
    28   14   43 1
    29   15   16 ar
    30   15   44 1
    31   16   17 ar
    32   16   21 1
    33   17   18 ar
    34   17   45 1
    35   18   19 1
    36   19   20 1
    37   21   22 1
    38   22   23 1
    39   22   46 1
    40   22   47 1
    41   23   28 ar
    42   23   24 ar
    43   24   25 ar
    44   24   48 1
    45   25   26 ar
    46   25   49 1
    47   26   27 ar
    48   26   50 1
    49   27   28 ar
    50   27   51 1
    51   28   52 1
    52   29   34 1
    53   29   30 ar
    54   30   31 1
    55   31   32 2
    56   31   33 am
    57   33   34 am
    58   33   53 1
    59   34   35 2
@<TRIPOS>MOLECULE
CHEMBL188102
   44    47     0     0     0
SMALL
USER_CHARGES

@<TRIPOS>ATOM
      1 C1          0.0059    1.2700    0.0111 C.3       1 <0>        -0.1425
      2 C2          0.0426   -0.2594   -0.0090 C.3       1 <0>        -0.0529
      3 C3         -1.3652   -0.7961    0.0216 C.2       1 <0>         0.1701
      4 C4         -2.1064   -1.0985    1.1792 C.2       1 <0>        -0.3214
      5 C5         -3.3612   -1.5691    0.7599 C.2       1 <0>         0.3507
      6 N1         -4.2662   -1.9302    1.6824 N.2       1 <0>        -0.5186
      7 C6         -4.0151   -1.8571    2.9568 C.2       1 <0>         0.4275
      8 N2         -2.8322   -1.4152    3.4538 N.am      1 <0>        -0.6452
      9 C7         -1.8435   -1.0237    2.6161 C.2       1 <0>         0.5779
     10 O1         -0.7746   -0.6242    3.0431 O.2       1 <0>        -0.4957
     11 C8         -5.0878   -2.2823    3.9261 C.3       1 <0>        -0.0739
     12 C9         -6.3636   -2.6277    3.1555 C.3       1 <0>        -0.0485
     13 C10        -7.4472   -3.0183    4.1273 C.2       1 <0>         0.0292
     14 C11        -7.6349   -4.2440    4.6526 C.2       1 <0>         0.0385
     15 N3         -8.7213   -4.1578    5.4807 N.pl3     1 <0>        -0.5090
     16 H1         -9.1046   -4.8789    6.0044 H         1 <0>         0.4686
     17 C12        -9.1600   -2.8816    5.4327 C.cat     1 <0>         0.3084
     18 N4         -8.3902   -2.2047    4.6251 N.pl3     1 <0>        -0.4748
     19 N5         -3.3510   -1.5416   -0.6006 N.pl3     1 <0>        -0.3109
     20 N6         -2.1069   -1.0544   -1.0207 N.2       1 <0>        -0.2420
     21 C13        -4.4064   -1.9291   -1.4377 C.ar      1 <0>         0.1647
     22 C14        -5.6647   -1.3615   -1.2795 C.ar      1 <0>        -0.0048
     23 C15        -6.7035   -1.7457   -2.1065 C.ar      1 <0>        -0.0889
     24 C16        -6.4913   -2.6949   -3.0908 C.ar      1 <0>        -0.0057
     25 C17        -5.2392   -3.2620   -3.2508 C.ar      1 <0>        -0.0860
     26 C18        -4.1950   -2.8773   -2.4309 C.ar      1 <0>        -0.0022
     27 Cl1        -2.6226   -3.5836   -2.6374 Cl        1 <0>        -0.0086
     28 Cl2        -7.7988   -3.1757   -4.1268 Cl        1 <0>        -0.0242
     29 Cl3        -5.9320   -0.1715   -0.0442 Cl        1 <0>        -0.0258
     30 H2          1.0242    1.6582   -0.0110 H         1 <0>         0.0717
     31 H3         -0.5399    1.6319   -0.8602 H         1 <0>         0.0581
     32 H4         -0.4927    1.6096    0.9190 H         1 <0>         0.0567
     33 H5          0.5413   -0.5989   -0.9168 H         1 <0>         0.0893
     34 H6          0.5884   -0.6212    0.8624 H         1 <0>         0.0982
     35 H7         -4.7500   -3.1578    4.4807 H         1 <0>         0.1180
     36 H8         -5.2925   -1.4683    4.6215 H         1 <0>         0.1081
     37 H9         -6.6868   -1.7601    2.5803 H         1 <0>         0.1081
     38 H10        -6.1656   -3.4590    2.4788 H         1 <0>         0.1275
     39 H11        -7.0424   -5.1257    4.4576 H         1 <0>         0.2279
     40 H12       -10.0054   -2.4856    5.9758 H         1 <0>         0.2666
     41 H13        -7.6818   -1.3049   -1.9841 H         1 <0>         0.1614
     42 H14        -5.0767   -4.0025   -4.0199 H         1 <0>         0.1645
     43 H15        -2.6945   -1.3797    4.4133 H         1 <0>         0.4246
     44 H16        -8.4859   -1.2623    4.4163 H         1 <0>         0.4651
@<TRIPOS>BOND
     1    1    2 1
     2    1   30 1
     3    1   31 1
     4    1   32 1
     5    2    3 1
     6    2   33 1
     7    2   34 1
     8    3   20 2
     9    3    4 1
    10    4    9 1
    11    4    5 2
    12    5    6 1
    13    5   19 1
    14    6    7 2
    15    7    8 1
    16    7   11 1
    17    8    9 am
    18    8   43 1
    19    9   10 2
    20   11   12 1
    21   11   35 1
    22   11   36 1
    23   12   13 1
    24   12   37 1
    25   12   38 1
    26   13   18 1
    27   13   14 2
    28   14   15 1
    29   14   39 1
    30   15   16 1
    31   15   17 1
    32   17   18 2
    33   17   40 1
    34   18   44 1
    35   19   20 1
    36   19   21 1
    37   21   26 ar
    38   21   22 ar
    39   22   23 ar
    40   22   29 1
    41   23   24 ar
    42   23   41 1
    43   24   25 ar
    44   24   28 1
    45   25   26 ar
    46   25   42 1
    47   26   27 1
@<TRIPOS>MOLECULE
CHEMBL188102
   43    46     0     0     0
SMALL
USER_CHARGES

@<TRIPOS>ATOM
      1 C1         -0.0203    1.3304    0.0261 C.3       1 <0>        -0.1415
      2 C2          0.0251   -0.1986   -0.0062 C.3       1 <0>        -0.0496
      3 C3         -1.3796   -0.7437    0.0229 C.2       1 <0>         0.1691
      4 C4         -2.1167   -1.0594    1.1795 C.2       1 <0>        -0.3357
      5 C5         -3.3696   -1.5339    0.7590 C.2       1 <0>         0.3631
      6 N1         -4.2707   -1.9075    1.6804 N.2       1 <0>        -0.5216
      7 C6         -4.0174   -1.8430    2.9548 C.2       1 <0>         0.4441
      8 N2         -2.8361   -1.3983    3.4530 N.am      1 <0>        -0.6465
      9 C7         -1.8513   -0.9945    2.6165 C.2       1 <0>         0.5794
     10 O1         -0.7839   -0.5923    3.0445 O.2       1 <0>        -0.5100
     11 C8         -5.0857   -2.2821    3.9228 C.3       1 <0>        -0.0705
     12 C9         -6.3615   -2.6276    3.1521 C.3       1 <0>        -0.0124
     13 C10        -7.4451   -3.0183    4.1238 C.2       1 <0>        -0.0031
     14 C11        -8.6713   -2.4676    4.2050 C.2       1 <0>        -0.0491
     15 N3         -9.3301   -3.1152    5.2151 N.pl3     1 <0>        -0.5705
     16 H1        -10.2363   -2.9424    5.5149 H         1 <0>         0.4216
     17 C12        -8.4829   -4.0397    5.7163 C.2       1 <0>         0.1875
     18 N4         -7.3593   -3.9794    5.0554 N.2       1 <0>        -0.4899
     19 N5         -3.3623   -1.4956   -0.6013 N.pl3     1 <0>        -0.3172
     20 N6         -2.1218   -0.9980   -1.0200 N.2       1 <0>        -0.2515
     21 C13        -4.4171   -1.8825   -1.4393 C.ar      1 <0>         0.1702
     22 C14        -5.6783   -1.3234   -1.2743 C.ar      1 <0>        -0.0038
     23 C15        -6.7165   -1.7070   -2.1023 C.ar      1 <0>        -0.0870
     24 C16        -6.5009   -2.6472   -3.0944 C.ar      1 <0>        -0.0072
     25 C17        -5.2459   -3.2059   -3.2612 C.ar      1 <0>        -0.0889
     26 C18        -4.2023   -2.8217   -2.4404 C.ar      1 <0>        -0.0035
     27 Cl1        -2.6263   -3.5174   -2.6554 Cl        1 <0>        -0.0149
     28 Cl2        -7.8076   -3.1273   -4.1316 Cl        1 <0>        -0.0312
     29 Cl3        -5.9500   -0.1446   -0.0292 Cl        1 <0>        -0.0172
     30 H2          0.9957    1.7246    0.0051 H         1 <0>         0.0680
     31 H3         -0.5699    1.6959   -0.8413 H         1 <0>         0.0568
     32 H4         -0.5191    1.6598    0.9376 H         1 <0>         0.0577
     33 H5          0.5239   -0.5281   -0.9177 H         1 <0>         0.0855
     34 H6          0.5747   -0.5642    0.8612 H         1 <0>         0.0966
     35 H7         -4.7421   -3.1604    4.4692 H         1 <0>         0.1155
     36 H8         -5.2931   -1.4751    4.6256 H         1 <0>         0.1033
     37 H9         -6.6847   -1.7599    2.5769 H         1 <0>         0.0850
     38 H10        -6.1633   -3.4588    2.4754 H         1 <0>         0.0880
     39 H11        -9.0601   -1.6684    3.5914 H         1 <0>         0.1756
     40 H12        -8.7007   -4.7193    6.5269 H         1 <0>         0.2077
     41 H13        -7.6971   -1.2727   -1.9745 H         1 <0>         0.1615
     42 H14        -5.0807   -3.9395   -4.0365 H         1 <0>         0.1616
     43 H15        -2.6967   -1.3696    4.4125 H         1 <0>         0.4248
@<TRIPOS>BOND
     1    1    2 1
     2    1   30 1
     3    1   31 1
     4    1   32 1
     5    2    3 1
     6    2   33 1
     7    2   34 1
     8    3   20 2
     9    3    4 1
    10    4    9 1
    11    4    5 2
    12    5    6 1
    13    5   19 1
    14    6    7 2
    15    7    8 1
    16    7   11 1
    17    8    9 am
    18    8   43 1
    19    9   10 2
    20   11   12 1
    21   11   35 1
    22   11   36 1
    23   12   13 1
    24   12   37 1
    25   12   38 1
    26   13   18 1
    27   13   14 2
    28   14   15 1
    29   14   39 1
    30   15   16 1
    31   15   17 1
    32   17   18 2
    33   17   40 1
    34   19   20 1
    35   19   21 1
    36   21   26 ar
    37   21   22 ar
    38   22   23 ar
    39   22   29 1
    40   23   24 ar
    41   23   41 1
    42   24   25 ar
    43   24   28 1
    44   25   26 ar
    45   25   42 1
    46   26   27 1
@<TRIPOS>MOLECULE
CHEMBL188102
   43    46     0     0     0
SMALL
USER_CHARGES

@<TRIPOS>ATOM
      1 C1         -0.0270    1.1832    0.0646 C.3       1 <0>        -0.1419
      2 C2         -0.0133   -0.3467    0.0567 C.3       1 <0>        -0.0499
      3 C3          0.6723   -0.8365   -1.1927 C.2       1 <0>         0.1689
      4 C4          0.0463   -1.1051   -2.4243 C.2       1 <0>        -0.3326
      5 C5          1.0434   -1.5375   -3.3134 C.2       1 <0>         0.3602
      6 N1          0.7036   -1.8612   -4.5705 N.2       1 <0>        -0.5204
      7 C6         -0.5252   -1.7861   -4.9910 C.2       1 <0>         0.4406
      8 N2         -1.5532   -1.3795   -4.2039 N.am      1 <0>        -0.6461
      9 C7         -1.3290   -1.0275   -2.9162 C.2       1 <0>         0.5793
     10 O1         -2.2387   -0.6600   -2.1940 O.2       1 <0>        -0.5071
     11 C8         -0.8207   -2.1681   -6.4185 C.3       1 <0>        -0.0745
     12 C9          0.4895   -2.4785   -7.1451 C.3       1 <0>        -0.0241
     13 C10         0.1953   -2.8449   -8.5769 C.2       1 <0>        -0.0311
     14 C11         0.0352   -1.9924   -9.6071 C.2       1 <0>        -0.0170
     15 N3         -0.2109   -2.7154  -10.7096 N.2       1 <0>        -0.4935
     16 H1          0.1074   -4.9383   -8.5833 H         1 <0>         0.4196
     17 C12        -0.2095   -3.9836  -10.4019 C.2       1 <0>         0.1878
     18 N4          0.0452   -4.1084   -9.0816 N.pl3     1 <0>        -0.5667
     19 N5          2.2146   -1.5212   -2.6206 N.pl3     1 <0>        -0.3153
     20 N6          1.9485   -1.0786   -1.3187 N.2       1 <0>        -0.2493
     21 C13         3.4721   -1.8804   -3.1249 C.ar      1 <0>         0.1678
     22 C14         3.9616   -1.2706   -4.2733 C.ar      1 <0>        -0.0042
     23 C15         5.2020   -1.6270   -4.7683 C.ar      1 <0>        -0.0868
     24 C16         5.9559   -2.5904   -4.1214 C.ar      1 <0>        -0.0067
     25 C17         5.4710   -3.1995   -2.9774 C.ar      1 <0>        -0.0892
     26 C18         4.2340   -2.8429   -2.4742 C.ar      1 <0>        -0.0036
     27 Cl1         3.6299   -3.6020   -1.0346 Cl        1 <0>        -0.0149
     28 Cl2         7.5128   -3.0361   -4.7467 Cl        1 <0>        -0.0295
     29 Cl3         3.0161   -0.0627   -5.0861 Cl        1 <0>        -0.0157
     30 H2          0.9971    1.5558    0.0422 H         1 <0>         0.0572
     31 H3         -0.5649    1.5462   -0.8112 H         1 <0>         0.0579
     32 H4         -0.5229    1.5375    0.9683 H         1 <0>         0.0687
     33 H5          0.5247   -0.7098    0.9325 H         1 <0>         0.0860
     34 H6         -1.0374   -0.7194    0.0791 H         1 <0>         0.0967
     35 H7         -1.4621   -3.0493   -6.4335 H         1 <0>         0.1066
     36 H8         -1.3265   -1.3420   -6.9184 H         1 <0>         0.1122
     37 H9          1.1356   -1.6010   -7.1200 H         1 <0>         0.0995
     38 H10         0.9896   -3.3122   -6.6521 H         1 <0>         0.0850
     39 H11         0.0947   -0.9153   -9.5546 H         1 <0>         0.1687
     40 H12        -0.3803   -4.7984  -11.0898 H         1 <0>         0.2081
     41 H13         5.5830   -1.1533   -5.6610 H         1 <0>         0.1624
     42 H14         6.0617   -3.9511   -2.4747 H         1 <0>         0.1619
     43 H15        -2.4524   -1.3409   -4.5656 H         1 <0>         0.4250
@<TRIPOS>BOND
     1    1    2 1
     2    1   30 1
     3    1   31 1
     4    1   32 1
     5    2    3 1
     6    2   33 1
     7    2   34 1
     8    3   20 2
     9    3    4 1
    10    4    9 1
    11    4    5 2
    12    5    6 1
    13    5   19 1
    14    6    7 2
    15    7    8 1
    16    7   11 1
    17    8    9 am
    18    8   43 1
    19    9   10 2
    20   11   12 1
    21   11   35 1
    22   11   36 1
    23   12   37 1
    24   12   38 1
    25   12   13 1
    26   13   14 2
    27   13   18 1
    28   14   15 1
    29   14   39 1
    30   15   17 2
    31   16   18 1
    32   17   40 1
    33   17   18 1
    34   19   20 1
    35   19   21 1
    36   21   26 ar
    37   21   22 ar
    38   22   23 ar
    39   22   29 1
    40   23   24 ar
    41   23   41 1
    42   24   25 ar
    43   24   28 1
    44   25   26 ar
    45   25   42 1
    46   26   27 1
@<TRIPOS>MOLECULE
CHEMBL520003
   42    45     0     0     0
SMALL
USER_CHARGES

@<TRIPOS>ATOM
      1 C1          1.0659   -3.4174   -0.7129 C.3       1 <0>         0.0823
      2 N1          0.5620   -2.3828   -1.6194 N.pl3     1 <0>        -1.1210
      3 S1          0.7106   -0.7838   -1.2150 S.o2      1 <0>         2.6985
      4 O1          0.1598   -0.0394   -2.2930 O.2       1 <0>        -0.9599
      5 O2          0.2375   -0.6565    0.1188 O.2       1 <0>        -0.9565
      6 C2          2.4329   -0.4141   -1.1759 C.ar      1 <0>        -0.6991
      7 C3          3.1458   -0.5718   -0.0015 C.ar      1 <0>        -0.0001
      8 C4          4.4960   -0.2834    0.0325 C.ar      1 <0>        -0.1383
      9 C5          5.1378    0.1655   -1.1147 C.ar      1 <0>         0.2286
     10 C6          4.4188    0.3227   -2.2926 C.ar      1 <0>        -0.1714
     11 C7          3.0699    0.0275   -2.3211 C.ar      1 <0>         0.0063
     12 N2          6.5045    0.4588   -1.0836 N.pl3     1 <0>        -0.6386
     13 C8          7.3520   -0.2748   -0.2695 C.ar      1 <0>         0.5650
     14 N3          6.8719   -1.3234    0.3838 N.ar      1 <0>        -0.5557
     15 C9          7.6486   -2.0521    1.1722 C.ar      1 <0>         0.1938
     16 C10         8.9793   -1.7111    1.3136 C.ar      1 <0>        -0.2610
     17 C11         9.4610   -0.5973    0.6112 C.ar      1 <0>         0.2966
     18 N4          8.6210    0.0865   -0.1686 N.ar      1 <0>        -0.5492
     19 C12        10.8727   -0.1918    0.7278 C.2       1 <0>         0.0125
     20 C13        11.4774    0.8805    0.1019 C.2       1 <0>         0.0975
     21 N5         12.7539    0.9069    0.4633 N.2       1 <0>        -0.4617
     22 C14        13.0019   -0.0996    1.2945 C.2       1 <0>         0.1859
     23 N6         11.8417   -0.8027    1.4845 N.pl3     1 <0>        -0.2573
     24 N7         11.8275   -1.9173    2.3284 N.2       1 <0>        -0.2664
     25 C15        12.9145   -2.2989    2.9462 C.2       1 <0>         0.1407
     26 C16        14.1171   -1.6028    2.7787 C.2       1 <0>        -0.1725
     27 C17        14.1705   -0.5168    1.9574 C.2       1 <0>        -0.0021
     28 H1          2.1374   -3.2814   -0.5660 H         1 <0>         0.0610
     29 H2          0.5549   -3.3399    0.2468 H         1 <0>         0.0694
     30 H3          0.8804   -4.4008   -1.1449 H         1 <0>         0.0834
     31 H4          0.1414   -2.6343   -2.4565 H         1 <0>         0.4195
     32 H5          2.6461   -0.9205    0.8902 H         1 <0>         0.1428
     33 H6          5.0522   -0.4064    0.9501 H         1 <0>         0.1438
     34 H7          4.9147    0.6719   -3.1862 H         1 <0>         0.1366
     35 H8          2.5111    0.1457   -3.2377 H         1 <0>         0.1446
     36 H9          6.8592    1.1759   -1.6321 H         1 <0>         0.4286
     37 H10         7.2449   -2.9040    1.6992 H         1 <0>         0.1766
     38 H11         9.6333   -2.2883    1.9503 H         1 <0>         0.1590
     39 H12        10.9945    1.5774   -0.5671 H         1 <0>         0.2017
     40 H13        12.8842   -3.1622    3.5944 H         1 <0>         0.2053
     41 H14        15.0062   -1.9309    3.2966 H         1 <0>         0.1628
     42 H15        15.0959    0.0243    1.8264 H         1 <0>         0.1680
@<TRIPOS>BOND
     1    1    2 1
     2    1   28 1
     3    1   29 1
     4    1   30 1
     5    2    3 1
     6    2   31 1
     7    3    4 2
     8    3    5 2
     9    3    6 1
    10    6   11 ar
    11    6    7 ar
    12    7    8 ar
    13    7   32 1
    14    8    9 ar
    15    8   33 1
    16    9   10 ar
    17    9   12 1
    18   10   11 ar
    19   10   34 1
    20   11   35 1
    21   12   13 1
    22   12   36 1
    23   13   18 ar
    24   13   14 ar
    25   14   15 ar
    26   15   16 ar
    27   15   37 1
    28   16   17 ar
    29   16   38 1
    30   17   18 ar
    31   17   19 1
    32   19   23 1
    33   19   20 2
    34   20   21 1
    35   20   39 1
    36   21   22 2
    37   22   27 1
    38   22   23 1
    39   23   24 1
    40   24   25 2
    41   25   26 1
    42   25   40 1
    43   26   27 2
    44   26   41 1
    45   27   42 1
@<TRIPOS>MOLECULE
CHEMBL378420
   59    62     0     0     0
SMALL
USER_CHARGES

@<TRIPOS>ATOM
      1 C1         -0.0812    1.3509   -0.3735 C.ar      1 <0>        -0.0372
      2 C2         -0.1018    0.7363   -1.6124 C.ar      1 <0>        -0.1625
      3 C3          0.9918    0.0119   -2.0474 C.ar      1 <0>         0.1750
      4 C4          2.1227   -0.0989   -1.2298 C.ar      1 <0>        -0.1908
      5 C5          2.1346    0.5265    0.0225 C.ar      1 <0>         0.1747
      6 C6          1.0319    1.2468    0.4410 C.ar      1 <0>        -0.1621
      7 F1          3.2206    0.4257    0.8198 F         1 <0>        -0.1203
      8 C7          3.2936   -0.8697   -1.6847 C.2       1 <0>         0.6201
      9 O1          4.1334   -0.3415   -2.3867 O.2       1 <0>        -0.4748
     10 N1          3.4330   -2.1603   -1.3222 N.am      1 <0>        -0.3973
     11 C8          4.5007   -2.9702   -1.5745 C.2       1 <0>         0.5908
     12 N2          4.2416   -4.1496   -1.0540 N.2       1 <0>        -0.5800
     13 C9          3.0367   -4.1314   -0.4703 C.2       1 <0>         0.5286
     14 N3          2.5104   -2.9381   -0.6038 N.2       1 <0>        -0.3620
     15 N4          2.4391   -5.2086    0.1809 N.pl3     1 <0>        -0.6220
     16 C10         3.1520   -6.3963    0.3656 C.ar      1 <0>         0.2033
     17 C11         4.5403   -6.3748    0.4123 C.ar      1 <0>        -0.1570
     18 C12         5.2417   -7.5502    0.5955 C.ar      1 <0>         0.0034
     19 C13         4.5637   -8.7477    0.7323 C.ar      1 <0>        -0.6487
     20 C14         3.1818   -8.7727    0.6862 C.ar      1 <0>         0.0032
     21 C15         2.4739   -7.6003    0.5086 C.ar      1 <0>        -0.1768
     22 S1          5.4626  -10.2452    0.9652 S.o2      1 <0>         2.6471
     23 O2          4.6189  -11.2986    0.5206 O.2       1 <0>        -1.0092
     24 O3          6.7593  -10.0285    0.4259 O.2       1 <0>        -1.0077
     25 N5          5.6569  -10.4509    2.5968 N.2       1 <0>        -1.0585
     26 C16         6.2889  -11.4822    3.0464 C.2       1 <0>         0.4865
     27 O4          6.7913  -12.3930    2.1870 O.3       1 <0>        -0.7280
     28 C17         6.4657  -11.6694    4.5312 C.3       1 <0>        -0.0780
     29 C18         5.8076  -10.5049    5.2740 C.3       1 <0>         0.0762
     30 N6          5.9799  -10.6874    6.7214 N.3       1 <0>        -0.5439
     31 C19         5.2351  -11.8624    7.1967 C.3       1 <0>         0.0122
     32 C20         5.4899  -12.0498    8.6946 C.3       1 <0>         0.0645
     33 O5          5.1186  -10.8560    9.3892 O.3       1 <0>        -0.3909
     34 C21         5.8252   -9.6921    8.9519 C.3       1 <0>         0.0646
     35 C22         5.5738   -9.4808    7.4566 C.3       1 <0>         0.0189
     36 N7          5.6473   -2.6158   -2.2547 N.pl3     1 <0>        -0.7938
     37 F2          0.9693   -0.5880   -3.2577 F         1 <0>        -0.1203
     38 H1         -0.9376    1.9192   -0.0419 H         1 <0>         0.1528
     39 H2         -0.9753    0.8226   -2.2417 H         1 <0>         0.1532
     40 H3          1.0393    1.7299    1.4069 H         1 <0>         0.1534
     41 H4          1.5283   -5.1342    0.5060 H         1 <0>         0.4282
     42 H5          5.0704   -5.4400    0.3052 H         1 <0>         0.1473
     43 H6          6.3210   -7.5343    0.6315 H         1 <0>         0.1393
     44 H7          2.6554   -9.7096    0.7931 H         1 <0>         0.1408
     45 H8          1.3946   -7.6198    0.4772 H         1 <0>         0.1297
     46 H9          5.9993  -12.6058    4.8375 H         1 <0>         0.0754
     47 H10         7.5289  -11.6980    4.7697 H         1 <0>         0.0851
     48 H11         6.2740   -9.5686    4.9677 H         1 <0>         0.0851
     49 H12         4.7444  -10.4763    5.0355 H         1 <0>         0.0460
     50 H13         4.1693  -11.7117    7.0248 H         1 <0>         0.0414
     51 H14         5.5698  -12.7483    6.6569 H         1 <0>         0.0902
     52 H15         4.8950  -12.8854    9.0633 H         1 <0>         0.0938
     53 H16         6.5476  -12.2538    8.8612 H         1 <0>         0.0580
     54 H17         5.4728   -8.8225    9.5067 H         1 <0>         0.0928
     55 H18         6.8927   -9.8275    9.1260 H         1 <0>         0.0574
     56 H19         6.1558   -8.6282    7.1066 H         1 <0>         0.0851
     57 H20         4.5135   -9.2920    7.2889 H         1 <0>         0.0405
     58 H21         5.7456   -1.7162   -2.6038 H         1 <0>         0.4268
     59 H22         6.3551   -3.2663   -2.3840 H         1 <0>         0.4301
@<TRIPOS>BOND
     1    1    6 ar
     2    1    2 ar
     3    1   38 1
     4    2    3 ar
     5    2   39 1
     6    3    4 ar
     7    3   37 1
     8    4    5 ar
     9    4    8 1
    10    5    6 ar
    11    5    7 1
    12    6   40 1
    13    8    9 2
    14    8   10 am
    15   10   14 1
    16   10   11 1
    17   11   12 2
    18   11   36 1
    19   12   13 1
    20   13   14 2
    21   13   15 1
    22   15   16 1
    23   15   41 1
    24   16   21 ar
    25   16   17 ar
    26   17   18 ar
    27   17   42 1
    28   18   19 ar
    29   18   43 1
    30   19   20 ar
    31   19   22 1
    32   20   21 ar
    33   20   44 1
    34   21   45 1
    35   22   23 2
    36   22   24 2
    37   22   25 1
    38   25   26 2
    39   26   27 1
    40   26   28 1
    41   28   29 1
    42   28   46 1
    43   28   47 1
    44   29   30 1
    45   29   48 1
    46   29   49 1
    47   30   35 1
    48   30   31 1
    49   31   32 1
    50   31   50 1
    51   31   51 1
    52   32   33 1
    53   32   52 1
    54   32   53 1
    55   33   34 1
    56   34   35 1
    57   34   54 1
    58   34   55 1
    59   35   56 1
    60   35   57 1
    61   36   58 1
    62   36   59 1
@<TRIPOS>MOLECULE
CHEMBL378420
   60    63     0     0     0
SMALL
USER_CHARGES

@<TRIPOS>ATOM
      1 C1         -0.0812    1.3509   -0.3735 C.ar      1 <0>        -0.0344
      2 C2         -0.1018    0.7363   -1.6124 C.ar      1 <0>        -0.1609
      3 C3          0.9918    0.0119   -2.0474 C.ar      1 <0>         0.1753
      4 C4          2.1227   -0.0989   -1.2298 C.ar      1 <0>        -0.1953
      5 C5          2.1346    0.5265    0.0225 C.ar      1 <0>         0.1741
      6 C6          1.0319    1.2468    0.4410 C.ar      1 <0>        -0.1610
      7 F1          3.2206    0.4257    0.8198 F         1 <0>        -0.1212
      8 C7          3.2936   -0.8697   -1.6847 C.2       1 <0>         0.6211
      9 O1          4.1334   -0.3415   -2.3867 O.2       1 <0>        -0.4672
     10 N1          3.4330   -2.1603   -1.3222 N.am      1 <0>        -0.3962
     11 C8          4.5007   -2.9702   -1.5745 C.2       1 <0>         0.5944
     12 N2          4.2416   -4.1496   -1.0540 N.2       1 <0>        -0.5869
     13 C9          3.0367   -4.1314   -0.4703 C.2       1 <0>         0.5197
     14 N3          2.5104   -2.9381   -0.6038 N.2       1 <0>        -0.3483
     15 N4          2.4391   -5.2086    0.1809 N.pl3     1 <0>        -0.6225
     16 C10         3.1520   -6.3963    0.3656 C.ar      1 <0>         0.2386
     17 C11         4.5403   -6.3748    0.4123 C.ar      1 <0>        -0.1604
     18 C12         5.2417   -7.5502    0.5955 C.ar      1 <0>         0.0080
     19 C13         4.5637   -8.7477    0.7323 C.ar      1 <0>        -0.7043
     20 C14         3.1818   -8.7727    0.6862 C.ar      1 <0>         0.0300
     21 C15         2.4739   -7.6003    0.5086 C.ar      1 <0>        -0.1797
     22 S1          5.4626  -10.2452    0.9652 S.o2      1 <0>         2.6783
     23 O2          4.6189  -11.2986    0.5206 O.2       1 <0>        -0.9297
     24 O3          6.7593  -10.0285    0.4259 O.2       1 <0>        -0.9438
     25 N5          5.6569  -10.4509    2.5968 N.am      1 <0>        -1.0555
     26 C16         4.5814  -10.6541    3.3832 C.2       1 <0>         0.5408
     27 O4          3.4713  -10.6864    2.8959 O.2       1 <0>        -0.4882
     28 C17         4.7583  -10.8413    4.8680 C.3       1 <0>        -0.1409
     29 C18         3.3912  -11.0525    5.5219 C.3       1 <0>         0.0651
     30 N6          3.5636  -11.2349    6.9692 N.3       1 <0>        -0.5385
     31 C19         4.2802  -12.4850    7.2610 C.3       1 <0>         0.0099
     32 C20         4.4902  -12.6056    8.7727 C.3       1 <0>         0.0629
     33 O5          3.2225  -12.5418    9.4316 O.3       1 <0>        -0.3849
     34 C21         2.4976  -11.3371    9.1700 C.3       1 <0>         0.0631
     35 C22         2.2674  -11.2036    7.6623 C.3       1 <0>         0.0180
     36 N7          5.6473   -2.6158   -2.2547 N.pl3     1 <0>        -0.7914
     37 F2          0.9693   -0.5880   -3.2577 F         1 <0>        -0.1201
     38 H1         -0.9376    1.9192   -0.0419 H         1 <0>         0.1546
     39 H2         -0.9753    0.8226   -2.2417 H         1 <0>         0.1549
     40 H3          1.0393    1.7299    1.4069 H         1 <0>         0.1546
     41 H4          1.5283   -5.1342    0.5060 H         1 <0>         0.4324
     42 H5          5.0704   -5.4400    0.3052 H         1 <0>         0.1553
     43 H6          6.3210   -7.5343    0.6315 H         1 <0>         0.1431
     44 H7          2.6554   -9.7096    0.7931 H         1 <0>         0.1520
     45 H8          1.3946   -7.6198    0.4772 H         1 <0>         0.1381
     46 H9          6.5448  -10.4250    2.9866 H         1 <0>         0.4358
     47 H10         5.3874  -11.7122    5.0521 H         1 <0>         0.1057
     48 H11         5.2309   -9.9554    5.2922 H         1 <0>         0.1159
     49 H12         2.7620  -10.1816    5.3378 H         1 <0>         0.0886
     50 H13         2.9185  -11.9383    5.0977 H         1 <0>         0.0503
     51 H14         3.6934  -13.3323    6.9063 H         1 <0>         0.0470
     52 H15         5.2476  -12.4757    6.7588 H         1 <0>         0.0884
     53 H16         4.9704  -13.5577    8.9987 H         1 <0>         0.0992
     54 H17         5.1219  -11.7875    9.1189 H         1 <0>         0.0608
     55 H18         1.5366  -11.3718    9.6832 H         1 <0>         0.0998
     56 H19         3.0713  -10.4821    9.5277 H         1 <0>         0.0609
     57 H20         1.7655  -10.2590    7.4529 H         1 <0>         0.0889
     58 H21         1.6484  -12.0304    7.3140 H         1 <0>         0.0467
     59 H22         5.7456   -1.7162   -2.6038 H         1 <0>         0.4291
     60 H23         6.3551   -3.2663   -2.3840 H         1 <0>         0.4301
@<TRIPOS>BOND
     1    1    6 ar
     2    1    2 ar
     3    1   38 1
     4    2    3 ar
     5    2   39 1
     6    3    4 ar
     7    3   37 1
     8    4    5 ar
     9    4    8 1
    10    5    6 ar
    11    5    7 1
    12    6   40 1
    13    8    9 2
    14    8   10 am
    15   10   14 1
    16   10   11 1
    17   11   12 2
    18   11   36 1
    19   12   13 1
    20   13   14 2
    21   13   15 1
    22   15   16 1
    23   15   41 1
    24   16   21 ar
    25   16   17 ar
    26   17   18 ar
    27   17   42 1
    28   18   19 ar
    29   18   43 1
    30   19   20 ar
    31   19   22 1
    32   20   21 ar
    33   20   44 1
    34   21   45 1
    35   22   23 2
    36   22   24 2
    37   22   25 1
    38   25   26 am
    39   25   46 1
    40   26   27 2
    41   26   28 1
    42   28   29 1
    43   28   47 1
    44   28   48 1
    45   29   30 1
    46   29   49 1
    47   29   50 1
    48   30   35 1
    49   30   31 1
    50   31   32 1
    51   31   51 1
    52   31   52 1
    53   32   33 1
    54   32   53 1
    55   32   54 1
    56   33   34 1
    57   34   35 1
    58   34   55 1
    59   34   56 1
    60   35   57 1
    61   35   58 1
    62   36   59 1
    63   36   60 1
@<TRIPOS>MOLECULE
CHEMBL378420
   60    63     0     0     0
SMALL
USER_CHARGES

@<TRIPOS>ATOM
      1 C1         -0.0812    1.3509   -0.3735 C.ar      1 <0>        -0.0356
      2 C2         -0.1018    0.7363   -1.6124 C.ar      1 <0>        -0.1612
      3 C3          0.9918    0.0119   -2.0474 C.ar      1 <0>         0.1755
      4 C4          2.1227   -0.0989   -1.2298 C.ar      1 <0>        -0.1931
      5 C5          2.1346    0.5265    0.0225 C.ar      1 <0>         0.1738
      6 C6          1.0319    1.2468    0.4410 C.ar      1 <0>        -0.1618
      7 F1          3.2206    0.4257    0.8198 F         1 <0>        -0.1216
      8 C7          3.2936   -0.8697   -1.6847 C.2       1 <0>         0.6202
      9 O1          4.1334   -0.3415   -2.3867 O.2       1 <0>        -0.4700
     10 N1          3.4330   -2.1603   -1.3222 N.am      1 <0>        -0.3968
     11 C8          4.5007   -2.9702   -1.5745 C.2       1 <0>         0.5927
     12 N2          4.2416   -4.1496   -1.0540 N.2       1 <0>        -0.5841
     13 C9          3.0367   -4.1314   -0.4703 C.2       1 <0>         0.5237
     14 N3          2.5104   -2.9381   -0.6038 N.2       1 <0>        -0.3558
     15 N4          2.4391   -5.2086    0.1809 N.pl3     1 <0>        -0.6234
     16 C10         3.1520   -6.3963    0.3656 C.ar      1 <0>         0.2140
     17 C11         4.5403   -6.3748    0.4123 C.ar      1 <0>        -0.1578
     18 C12         5.2417   -7.5502    0.5955 C.ar      1 <0>         0.0032
     19 C13         4.5637   -8.7477    0.7323 C.ar      1 <0>        -0.6605
     20 C14         3.1818   -8.7727    0.6862 C.ar      1 <0>         0.0037
     21 C15         2.4739   -7.6003    0.5086 C.ar      1 <0>        -0.1779
     22 S1          5.4626  -10.2452    0.9652 S.o2      1 <0>         2.6623
     23 O2          4.6189  -11.2986    0.5206 O.2       1 <0>        -0.9996
     24 O3          6.7593  -10.0285    0.4259 O.2       1 <0>        -0.9988
     25 N5          5.6569  -10.4509    2.5968 N.2       1 <0>        -1.0758
     26 C16         6.2889  -11.4822    3.0464 C.2       1 <0>         0.4840
     27 O4          6.7913  -12.3930    2.1870 O.3       1 <0>        -0.7008
     28 C17         6.4657  -11.6694    4.5312 C.3       1 <0>        -0.1089
     29 C18         5.8076  -10.5049    5.2740 C.3       1 <0>         0.0080
     30 N6          5.9799  -10.6874    6.7214 N.4       1 <0>        -0.3886
     31 C19         5.2490  -11.8862    7.1546 C.3       1 <0>        -0.0498
     32 C20         5.4304  -12.0743    8.6629 C.3       1 <0>         0.0381
     33 O5          4.9692  -10.9035    9.3428 O.3       1 <0>        -0.3620
     34 C21         5.6353   -9.7045    8.9372 C.3       1 <0>         0.0372
     35 C22         5.4543   -9.5120    7.4294 C.3       1 <0>        -0.0415
     36 N7          5.6473   -2.6158   -2.2547 N.pl3     1 <0>        -0.7925
     37 F2          0.9693   -0.5880   -3.2577 F         1 <0>        -0.1198
     38 H1         -0.9376    1.9192   -0.0419 H         1 <0>         0.1540
     39 H2         -0.9753    0.8226   -2.2417 H         1 <0>         0.1545
     40 H3          1.0393    1.7299    1.4069 H         1 <0>         0.1538
     41 H4          1.5283   -5.1342    0.5060 H         1 <0>         0.4293
     42 H5          5.0704   -5.4400    0.3052 H         1 <0>         0.1495
     43 H6          6.3210   -7.5343    0.6315 H         1 <0>         0.1387
     44 H7          2.6554   -9.7096    0.7931 H         1 <0>         0.1406
     45 H8          1.3946   -7.6198    0.4772 H         1 <0>         0.1320
     46 H9          5.9993  -12.6058    4.8375 H         1 <0>         0.0979
     47 H10         7.5289  -11.6980    4.7697 H         1 <0>         0.0989
     48 H11         6.2740   -9.5686    4.9677 H         1 <0>         0.1421
     49 H12         4.7444  -10.4763    5.0355 H         1 <0>         0.1399
     50 H13         4.1895  -11.7679    6.9277 H         1 <0>         0.1388
     51 H14         5.6383  -12.7588    6.6300 H         1 <0>         0.1448
     52 H15         4.8541  -12.9382    8.9939 H         1 <0>         0.1378
     53 H16         6.4855  -12.2327    8.8856 H         1 <0>         0.0784
     54 H17         5.2073   -8.8533    9.4668 H         1 <0>         0.1367
     55 H18         6.6975   -9.7818    9.1694 H         1 <0>         0.0778
     56 H19         5.9960   -8.6221    7.1089 H         1 <0>         0.1413
     57 H20         4.3947   -9.3946    7.2025 H         1 <0>         0.1377
     58 H21         5.7456   -1.7162   -2.6038 H         1 <0>         0.4282
     59 H22         6.3551   -3.2663   -2.3840 H         1 <0>         0.4302
     60 H23         6.9606  -10.7965    6.9323 H         1 <0>         0.4185
@<TRIPOS>BOND
     1    1    6 ar
     2    1    2 ar
     3    1   38 1
     4    2    3 ar
     5    2   39 1
     6    3    4 ar
     7    3   37 1
     8    4    5 ar
     9    4    8 1
    10    5    6 ar
    11    5    7 1
    12    6   40 1
    13    8    9 2
    14    8   10 am
    15   10   14 1
    16   10   11 1
    17   11   12 2
    18   11   36 1
    19   12   13 1
    20   13   14 2
    21   13   15 1
    22   15   16 1
    23   15   41 1
    24   16   21 ar
    25   16   17 ar
    26   17   18 ar
    27   17   42 1
    28   18   19 ar
    29   18   43 1
    30   19   20 ar
    31   19   22 1
    32   20   21 ar
    33   20   44 1
    34   21   45 1
    35   22   23 2
    36   22   24 2
    37   22   25 1
    38   25   26 2
    39   26   27 1
    40   26   28 1
    41   28   29 1
    42   28   46 1
    43   28   47 1
    44   29   30 1
    45   29   48 1
    46   29   49 1
    47   30   35 1
    48   30   31 1
    49   30   60 1
    50   31   32 1
    51   31   50 1
    52   31   51 1
    53   32   33 1
    54   32   52 1
    55   32   53 1
    56   33   34 1
    57   34   35 1
    58   34   54 1
    59   34   55 1
    60   35   56 1
    61   35   57 1
    62   36   58 1
    63   36   59 1
@<TRIPOS>MOLECULE
CHEMBL178769
   58    61     0     0     0
SMALL
USER_CHARGES

@<TRIPOS>ATOM
      1 C1          4.5352   -8.0041   -5.9721 C.3       1 <0>         0.0757
      2 N1          5.2540   -7.0242   -6.7903 N.pl3     1 <0>        -0.9986
      3 C2          6.6305   -7.2926   -7.2141 C.3       1 <0>         0.0915
      4 S1          4.5106   -5.6133   -7.2362 S.o2      1 <0>         2.6910
      5 O1          5.1685   -5.1616   -8.4120 O.2       1 <0>        -0.9505
      6 O2          3.1118   -5.8599   -7.1929 O.2       1 <0>        -0.9382
      7 C3          4.8516   -4.4253   -5.9804 C.ar      1 <0>        -0.7043
      8 C4          5.6089   -3.3066   -6.2761 C.ar      1 <0>         0.0334
      9 C5          5.8781   -2.3736   -5.2944 C.ar      1 <0>        -0.1721
     10 C6          5.3874   -2.5590   -4.0078 C.ar      1 <0>         0.2541
     11 C7          4.6271   -3.6831   -3.7131 C.ar      1 <0>        -0.1736
     12 C8          4.3562   -4.6108   -4.7016 C.ar      1 <0>         0.0929
     13 Cl1         3.3996   -6.0127   -4.3369 Cl        1 <0>        -0.0267
     14 N2          5.6587   -1.6164   -3.0122 N.pl3     1 <0>        -0.6691
     15 C9          6.5317   -0.5774   -3.2649 C.2       1 <0>         0.4639
     16 C10         6.1214    0.7174   -3.1364 C.2       1 <0>        -0.2667
     17 C11         7.0294    1.7558   -3.3995 C.2       1 <0>         0.4780
     18 N3          8.2682    1.4784   -3.7677 N.2       1 <0>        -0.5378
     19 C12         8.6804    0.2083   -3.8966 C.2       1 <0>         0.3530
     20 N4          7.8259   -0.8327   -3.6434 N.pl3     1 <0>        -0.3453
     21 N5          8.5318   -2.0230   -3.8520 N.2       1 <0>        -0.2957
     22 C13         9.7605   -1.7304   -4.2102 C.2       1 <0>         0.1365
     23 C14         9.8987   -0.3491   -4.2603 C.2       1 <0>        -0.2605
     24 Br1        11.4681    0.6002   -4.7206 Br        1 <0>        -0.0032
     25 N6          6.6254    3.0749   -3.2733 N.pl3     1 <0>        -0.6976
     26 C15         7.5708    4.1600   -3.5472 C.3       1 <0>         0.1483
     27 C16         8.3966    4.4461   -2.2914 C.3       1 <0>        -0.1294
     28 C17         9.3840    5.5793   -2.5775 C.3       1 <0>        -0.1391
     29 C18         8.6129    6.8384   -2.9787 C.3       1 <0>         0.0237
     30 C19         7.7872    6.5523   -4.2346 C.3       1 <0>        -0.1372
     31 C20         6.7998    5.4191   -3.9485 C.3       1 <0>        -0.1285
     32 N7          9.5610    7.9264   -3.2534 N.4       1 <0>        -0.6370
     33 H1          4.7079   -7.7928   -4.9168 H         1 <0>         0.0601
     34 H2          3.4680   -7.9423   -6.1851 H         1 <0>         0.0850
     35 H3          4.8949   -9.0062   -6.2056 H         1 <0>         0.0804
     36 H4          6.6209   -7.8135   -8.1715 H         1 <0>         0.0652
     37 H5          7.1688   -6.3506   -7.3183 H         1 <0>         0.0715
     38 H6          7.1259   -7.9135   -6.4676 H         1 <0>         0.0768
     39 H7          5.9906   -3.1627   -7.2761 H         1 <0>         0.1560
     40 H8          6.4700   -1.5005   -5.5264 H         1 <0>         0.1255
     41 H9          4.2441   -3.8302   -2.7140 H         1 <0>         0.1487
     42 H10         5.2336   -1.6923   -2.1436 H         1 <0>         0.4325
     43 H11         5.1086    0.9414   -2.8358 H         1 <0>         0.1707
     44 H12        10.5355   -2.4473   -4.4380 H         1 <0>         0.2051
     45 H13         5.7166    3.2801   -3.0035 H         1 <0>         0.4176
     46 H14         8.2353    3.8664   -4.3599 H         1 <0>         0.1034
     47 H15         7.7322    4.7397   -1.4787 H         1 <0>         0.0756
     48 H16         8.9459    3.5491   -2.0055 H         1 <0>         0.0931
     49 H17         9.9723    5.7832   -1.6828 H         1 <0>         0.0923
     50 H18        10.0484    5.2857   -3.3902 H         1 <0>         0.0936
     51 H19         7.9485    7.1320   -2.1661 H         1 <0>         0.1428
     52 H20         7.2379    7.4493   -4.5204 H         1 <0>         0.0951
     53 H21         8.4516    6.2587   -5.0472 H         1 <0>         0.0934
     54 H22         6.2115    5.2152   -4.8431 H         1 <0>         0.0940
     55 H23         6.1353    5.7127   -3.1358 H         1 <0>         0.0821
     56 H24        10.1760    7.6547   -4.0057 H         1 <0>         0.4345
     57 H25         9.0525    8.7568   -3.5180 H         1 <0>         0.4366
     58 H26        10.1055    8.1151   -2.4252 H         1 <0>         0.4373
@<TRIPOS>BOND
     1    1    2 1
     2    1   33 1
     3    1   34 1
     4    1   35 1
     5    2    3 1
     6    2    4 1
     7    3   36 1
     8    3   37 1
     9    3   38 1
    10    4    5 2
    11    4    6 2
    12    4    7 1
    13    7   12 ar
    14    7    8 ar
    15    8    9 ar
    16    8   39 1
    17    9   10 ar
    18    9   40 1
    19   10   11 ar
    20   10   14 1
    21   11   12 ar
    22   11   41 1
    23   12   13 1
    24   14   15 1
    25   14   42 1
    26   15   20 1
    27   15   16 2
    28   16   17 1
    29   16   43 1
    30   17   18 2
    31   17   25 1
    32   18   19 1
    33   19   23 2
    34   19   20 1
    35   20   21 1
    36   21   22 2
    37   22   23 1
    38   22   44 1
    39   23   24 1
    40   25   26 1
    41   25   45 1
    42   26   31 1
    43   26   27 1
    44   26   46 1
    45   27   28 1
    46   27   47 1
    47   27   48 1
    48   28   29 1
    49   28   49 1
    50   28   50 1
    51   29   30 1
    52   29   32 1
    53   29   51 1
    54   30   31 1
    55   30   52 1
    56   30   53 1
    57   31   54 1
    58   31   55 1
    59   32   56 1
    60   32   57 1
    61   32   58 1
@<TRIPOS>MOLECULE
CHEMBL536029
   49    52     0     0     0
SMALL
USER_CHARGES

@<TRIPOS>ATOM
      1 C1         -0.9103    1.1984   -1.3267 C.3       1 <0>         0.0307
      2 O1         -0.6621   -0.1615   -0.9648 O.3       1 <0>        -0.3042
      3 C2          0.5169   -0.7005   -1.3661 C.2       1 <0>         0.1246
      4 C3          1.5234   -0.0556   -2.0971 C.2       1 <0>        -0.2816
      5 C4          2.5322   -0.9379   -2.2915 C.2       1 <0>         0.0939
      6 N1          2.2082   -2.1223   -1.7122 N.pl3     1 <0>        -0.5079
      7 H1          2.7604   -2.9197   -1.7075 H         1 <0>         0.4291
      8 C5          0.9610   -2.0002   -1.1246 C.2       1 <0>        -0.0589
      9 C6          0.2717   -2.9979   -0.4200 C.2       1 <0>         0.1250
     10 C7          0.3845   -4.3254   -0.8082 C.2       1 <0>        -0.2398
     11 C8         -0.1448   -5.5078   -0.1018 C.ar      1 <0>        -0.0331
     12 C9          0.2177   -6.6191   -0.8745 C.ar      1 <0>         0.1339
     13 C10        -0.1490   -7.8907   -0.4532 C.ar      1 <0>        -0.0822
     14 C11        -0.8649   -8.0601    0.7172 C.ar      1 <0>        -0.1195
     15 C12        -1.2289   -6.9708    1.4881 C.ar      1 <0>         0.1080
     16 C13        -0.8715   -5.6815    1.0860 C.ar      1 <0>        -0.0056
     17 C14        -1.2437   -4.5481    1.8781 C.1       1 <0>        -0.0564
     18 C15        -1.5488   -3.6189    2.5275 C.1       1 <0>        -0.2305
     19 C16        -1.9313   -2.4538    3.3418 C.3       1 <0>         0.2565
     20 C17        -0.6716   -1.7128    3.7992 C.3       1 <0>        -0.1731
     21 C18         0.1591   -2.6349    4.6945 C.3       1 <0>        -0.0066
     22 N2         -0.6322   -3.0275    5.8667 N.4       1 <0>        -0.5047
     23 C19        -1.8047   -3.8006    5.4399 C.3       1 <0>        -0.0060
     24 C20        -2.7109   -2.9235    4.5734 C.3       1 <0>        -0.1331
     25 O2         -2.7486   -1.5757    2.5652 O.3       1 <0>        -0.5301
     26 F1         -1.9285   -7.1536    2.6293 F         1 <0>        -0.1306
     27 N3          0.9228   -6.1666   -1.9843 N.am      1 <0>        -0.6491
     28 C21         1.0287   -4.8272   -1.9719 C.2       1 <0>         0.5605
     29 O3          1.5888   -4.1527   -2.8186 O.2       1 <0>        -0.5111
     30 H2         -0.1363    1.8354   -0.8985 H         1 <0>         0.0583
     31 H3         -0.8994    1.2933   -2.4125 H         1 <0>         0.0597
     32 H4         -1.8845    1.5040   -0.9450 H         1 <0>         0.1038
     33 H5          1.4989    0.9666   -2.4448 H         1 <0>         0.1514
     34 H6          3.4493   -0.7320   -2.8235 H         1 <0>         0.1800
     35 H7         -0.3470   -2.7330    0.4247 H         1 <0>         0.1427
     36 H8          0.1264   -8.7521   -1.0436 H         1 <0>         0.1485
     37 H9         -1.1436   -9.0546    1.0331 H         1 <0>         0.1552
     38 H10        -0.0829   -1.4239    2.9285 H         1 <0>         0.1191
     39 H11        -0.9563   -0.8219    4.3589 H         1 <0>         0.1115
     40 H12         0.4435   -3.5253    4.1338 H         1 <0>         0.1312
     41 H13         1.0569   -2.1105    5.0217 H         1 <0>         0.1412
     42 H14        -0.0642   -3.5915    6.4811 H         1 <0>         0.4351
     43 H15        -1.4784   -4.6662    4.8634 H         1 <0>         0.1330
     44 H16        -2.3567   -4.1369    6.3176 H         1 <0>         0.1452
     45 H17        -3.0380   -2.0577    5.1491 H         1 <0>         0.1097
     46 H18        -3.5799   -3.4998    4.2561 H         1 <0>         0.1247
     47 H19        -2.3162   -1.2372    1.7692 H         1 <0>         0.3982
     48 H20         1.2857   -6.7406   -2.6769 H         1 <0>         0.4239
     49 H21        -0.9366   -2.2006    6.3581 H         1 <0>         0.4300
@<TRIPOS>BOND
     1    1    2 1
     2    1   30 1
     3    1   31 1
     4    1   32 1
     5    2    3 1
     6    3    8 2
     7    3    4 1
     8    4    5 2
     9    4   33 1
    10    5    6 1
    11    5   34 1
    12    6    7 1
    13    6    8 1
    14    8    9 1
    15    9   10 2
    16    9   35 1
    17   10   28 1
    18   10   11 1
    19   11   16 ar
    20   11   12 ar
    21   12   13 ar
    22   12   27 1
    23   13   14 ar
    24   13   36 1
    25   14   15 ar
    26   14   37 1
    27   15   16 ar
    28   15   26 1
    29   16   17 1
    30   17   18 3
    31   18   19 1
    32   19   24 1
    33   19   20 1
    34   19   25 1
    35   20   21 1
    36   20   38 1
    37   20   39 1
    38   21   22 1
    39   21   40 1
    40   21   41 1
    41   22   23 1
    42   22   42 1
    43   22   49 1
    44   23   24 1
    45   23   43 1
    46   23   44 1
    47   24   45 1
    48   24   46 1
    49   25   47 1
    50   27   28 am
    51   27   48 1
    52   28   29 2
@<TRIPOS>MOLECULE
CHEMBL301515
   44    48     0     0     0
SMALL
USER_CHARGES

@<TRIPOS>ATOM
      1 C1         -0.0178    1.4608    0.0101 C.3       1 <0>         0.0757
      2 N1          0.0021   -0.0041    0.0020 N.pl3     1 <0>        -0.4781
      3 C2          0.0078   -0.7756   -1.1193 C.2       1 <0>         0.1028
      4 C3          0.0272   -2.0937   -0.7697 C.2       1 <0>        -0.1389
      5 C4          0.0340   -2.1368    0.7032 C.ar      1 <0>        -0.0756
      6 C5          0.0236   -0.7983    1.1297 C.ar      1 <0>         0.0948
      7 C6          0.0327   -0.5163    2.4916 C.ar      1 <0>        -0.1246
      8 C7          0.0554   -1.5463    3.4071 C.ar      1 <0>        -0.0995
      9 C8          0.0699   -2.8675    2.9845 C.ar      1 <0>        -0.1390
     10 C9          0.0515   -3.1678    1.6397 C.ar      1 <0>        -0.0737
     11 C10         0.0386   -3.2475   -1.6846 C.2       1 <0>        -0.0279
     12 C11         1.1161   -3.7128   -2.4294 C.2       1 <0>        -0.0279
     13 C12         0.6195   -4.8849   -3.1797 C.2       1 <0>         0.5561
     14 O1          1.2732   -5.5653   -3.9450 O.2       1 <0>        -0.4472
     15 N2         -0.6754   -5.0730   -2.8741 N.am      1 <0>        -0.6912
     16 C13        -1.0913   -4.1487   -1.9919 C.2       1 <0>         0.5562
     17 O2         -2.2105   -4.0661   -1.5267 O.2       1 <0>        -0.4472
     18 C14         2.4767   -3.1509   -2.4642 C.2       1 <0>        -0.1389
     19 C15         3.4352   -3.2748   -1.5019 C.2       1 <0>         0.1028
     20 N3          4.5629   -2.6193   -1.8912 N.pl3     1 <0>        -0.4782
     21 C16         4.3771   -2.0411   -3.1298 C.ar      1 <0>         0.0948
     22 C17         3.0720   -2.3498   -3.5483 C.ar      1 <0>        -0.0756
     23 C18         2.6081   -1.8952   -4.7805 C.ar      1 <0>        -0.0737
     24 C19         3.4366   -1.1453   -5.5868 C.ar      1 <0>        -0.1389
     25 C20         4.7268   -0.8432   -5.1767 C.ar      1 <0>        -0.0995
     26 C21         5.1959   -1.2789   -3.9561 C.ar      1 <0>        -0.1247
     27 C22         5.7975   -2.5392   -1.1067 C.3       1 <0>         0.0755
     28 H1          1.0048    1.8381    0.0023 H         1 <0>         0.0724
     29 H2         -0.5450    1.8219   -0.8730 H         1 <0>         0.0864
     30 H3         -0.5280    1.8123    0.9069 H         1 <0>         0.0840
     31 H4         -0.0018   -0.4009   -2.1322 H         1 <0>         0.1738
     32 H5          0.0223    0.5088    2.8314 H         1 <0>         0.1198
     33 H6          0.0624   -1.3227    4.4636 H         1 <0>         0.1264
     34 H7          0.0880   -3.6646    3.7130 H         1 <0>         0.1245
     35 H8          0.0638   -4.1972    1.3134 H         1 <0>         0.1191
     36 H9         -1.2316   -5.7800   -3.2371 H         1 <0>         0.4285
     37 H10         3.3174   -3.8115   -0.5722 H         1 <0>         0.1737
     38 H11         1.6043   -2.1296   -5.1025 H         1 <0>         0.1192
     39 H12         3.0797   -0.7913   -6.5427 H         1 <0>         0.1245
     40 H13         5.3676   -0.2550   -5.8169 H         1 <0>         0.1265
     41 H14         6.2027   -1.0393   -3.6472 H         1 <0>         0.1197
     42 H15         6.4464   -3.3764   -1.3640 H         1 <0>         0.0739
     43 H16         6.3085   -1.6022   -1.3280 H         1 <0>         0.0833
     44 H17         5.5563   -2.5795   -0.0445 H         1 <0>         0.0859
@<TRIPOS>BOND
     1    1    2 1
     2    1   28 1
     3    1   29 1
     4    1   30 1
     5    2    6 1
     6    2    3 1
     7    3    4 2
     8    3   31 1
     9    4    5 1
    10    4   11 1
    11    5   10 ar
    12    5    6 ar
    13    6    7 ar
    14    7    8 ar
    15    7   32 1
    16    8    9 ar
    17    8   33 1
    18    9   10 ar
    19    9   34 1
    20   10   35 1
    21   11   16 1
    22   11   12 2
    23   12   13 1
    24   12   18 1
    25   13   14 2
    26   13   15 am
    27   15   16 am
    28   15   36 1
    29   16   17 2
    30   18   22 1
    31   18   19 2
    32   19   20 1
    33   19   37 1
    34   20   21 1
    35   20   27 1
    36   21   26 ar
    37   21   22 ar
    38   22   23 ar
    39   23   24 ar
    40   23   38 1
    41   24   25 ar
    42   24   39 1
    43   25   26 ar
    44   25   40 1
    45   26   41 1
    46   27   42 1
    47   27   43 1
    48   27   44 1
@<TRIPOS>MOLECULE
CHEMBL364805
   59    64     0     0     0
SMALL
USER_CHARGES

@<TRIPOS>ATOM
      1 C1         -0.0908    1.3853    0.0264 C.3       1 <0>         0.0237
      2 O1         -0.0651   -0.0435    0.0225 O.3       1 <0>        -0.3116
      3 C2          0.5681   -0.6516    1.0584 C.ar      1 <0>         0.1526
      4 C3          1.1481    0.1150    2.0618 C.ar      1 <0>        -0.2104
      5 C4          1.7915   -0.4977    3.1145 C.ar      1 <0>        -0.0509
      6 C5          1.8603   -1.8924    3.1725 C.ar      1 <0>        -0.1024
      7 C6          1.2755   -2.6595    2.1610 C.ar      1 <0>        -0.0251
      8 C7          0.6292   -2.0386    1.1149 C.ar      1 <0>        -0.1500
      9 C8          2.5486   -2.5531    4.2977 C.2       1 <0>         0.2442
     10 C9          3.4466   -3.6079    4.2085 C.2       1 <0>        -0.3329
     11 C10         3.8624   -3.9200    5.5783 C.2       1 <0>         0.1277
     12 N1          3.2346   -3.0908    6.3749 N.2       1 <0>        -0.2331
     13 N2          2.4259   -2.2375    5.6177 N.pl3     1 <0>        -0.4651
     14 H1          1.8639   -1.5328    5.9761 H         1 <0>         0.4487
     15 C11         4.8245   -5.0478    5.5074 C.ar      1 <0>         0.0437
     16 C12         5.5186   -5.7318    6.4972 C.ar      1 <0>        -0.1068
     17 C13         6.3737   -6.7682    6.1610 C.ar      1 <0>        -0.0591
     18 C14         6.5465   -7.1342    4.8418 C.ar      1 <0>        -0.1299
     19 C15         5.8620   -6.4636    3.8336 C.ar      1 <0>         0.2416
     20 C16         4.9943   -5.4136    4.1607 C.ar      1 <0>        -0.1950
     21 C17         4.1526   -4.5396    3.3187 C.2       1 <0>         0.4944
     22 O2          4.0603   -4.5836    2.1063 O.2       1 <0>        -0.4501
     23 N3          6.0390   -6.8345    2.5035 N.am      1 <0>        -0.6757
     24 C18         6.4348   -8.0865    2.2000 C.2       1 <0>         0.7162
     25 O3          6.5368   -8.9215    3.0778 O.2       1 <0>        -0.5437
     26 N4          6.7177   -8.4130    0.9233 N.am      1 <0>        -0.5174
     27 N5          6.6002   -7.4509   -0.0883 N.am      1 <0>        -0.5290
     28 C19         6.8830   -7.7774   -1.3649 C.2       1 <0>         0.5722
     29 O4          7.2402   -8.9071   -1.6388 O.2       1 <0>        -0.5187
     30 C20         6.7594   -6.7647   -2.4297 C.ar      1 <0>        -0.1252
     31 C21         6.4603   -5.4476   -2.1137 C.ar      1 <0>        -0.0644
     32 C22         6.3425   -4.4891   -3.1121 C.ar      1 <0>        -0.1311
     33 C23         6.5159   -4.8125   -4.4247 C.ar      1 <0>        -0.0636
     34 C24         6.8202   -6.1349   -4.7911 C.ar      1 <0>        -0.0604
     35 C25         6.9506   -7.1249   -3.7871 C.ar      1 <0>        -0.0073
     36 C26         7.2599   -8.4418   -4.1533 C.ar      1 <0>        -0.1197
     37 C27         7.4371   -8.7528   -5.4680 C.ar      1 <0>        -0.1094
     38 C28         7.3157   -7.7792   -6.4568 C.ar      1 <0>        -0.1121
     39 C29         7.0031   -6.4929   -6.1382 C.ar      1 <0>        -0.1079
     40 H2          0.9301    1.7671    0.0105 H         1 <0>         0.0591
     41 H3         -0.6257    1.7415   -0.8539 H         1 <0>         0.1046
     42 H4         -0.5962    1.7371    0.9258 H         1 <0>         0.0587
     43 H5          1.0948    1.1927    2.0161 H         1 <0>         0.1368
     44 H6          2.2423    0.0988    3.8938 H         1 <0>         0.1291
     45 H7          1.3267   -3.7375    2.2017 H         1 <0>         0.1379
     46 H8          0.1729   -2.6306    0.3354 H         1 <0>         0.1410
     47 H9          5.3913   -5.4541    7.5331 H         1 <0>         0.1395
     48 H10         6.9097   -7.2938    6.9374 H         1 <0>         0.1446
     49 H11         7.2158   -7.9439    4.5913 H         1 <0>         0.1627
     50 H12         5.8775   -6.1918    1.7952 H         1 <0>         0.4112
     51 H13         7.0025   -9.3142    0.7049 H         1 <0>         0.4505
     52 H14         6.3154   -6.5498    0.1302 H         1 <0>         0.4210
     53 H15         6.3172   -5.1646   -1.0813 H         1 <0>         0.1260
     54 H16         6.1090   -3.4694   -2.8435 H         1 <0>         0.1348
     55 H17         6.4190   -4.0513   -5.1847 H         1 <0>         0.1350
     56 H18         7.3577   -9.2065   -3.3969 H         1 <0>         0.1682
     57 H19         7.6753   -9.7685   -5.7474 H         1 <0>         0.1262
     58 H20         7.4613   -8.0508   -7.4919 H         1 <0>         0.1256
     59 H21         6.9114   -5.7483   -6.9151 H         1 <0>         0.1307
@<TRIPOS>BOND
     1    1    2 1
     2    1   40 1
     3    1   41 1
     4    1   42 1
     5    2    3 1
     6    3    8 ar
     7    3    4 ar
     8    4    5 ar
     9    4   43 1
    10    5    6 ar
    11    5   44 1
    12    6    7 ar
    13    6    9 1
    14    7    8 ar
    15    7   45 1
    16    8   46 1
    17    9   13 1
    18    9   10 2
    19   10   21 1
    20   10   11 1
    21   11   12 2
    22   11   15 1
    23   12   13 1
    24   13   14 1
    25   15   20 ar
    26   15   16 ar
    27   16   17 ar
    28   16   47 1
    29   17   18 ar
    30   17   48 1
    31   18   19 ar
    32   18   49 1
    33   19   20 ar
    34   19   23 1
    35   20   21 1
    36   21   22 2
    37   23   24 am
    38   23   50 1
    39   24   25 2
    40   24   26 am
    41   26   27 1
    42   26   51 1
    43   27   28 am
    44   27   52 1
    45   28   29 2
    46   28   30 1
    47   30   35 ar
    48   30   31 ar
    49   31   32 ar
    50   31   53 1
    51   32   33 ar
    52   32   54 1
    53   33   34 ar
    54   33   55 1
    55   34   39 ar
    56   34   35 ar
    57   35   36 ar
    58   36   37 ar
    59   36   56 1
    60   37   38 ar
    61   37   57 1
    62   38   39 ar
    63   38   58 1
    64   39   59 1
@<TRIPOS>MOLECULE
CHEMBL364805
   59    64     0     0     0
SMALL
USER_CHARGES

@<TRIPOS>ATOM
      1 C1         -0.0427    1.4744    0.0677 C.3       1 <0>         0.0248
      2 O1         -0.0263    0.0456    0.0513 O.3       1 <0>        -0.3145
      3 C2          0.6017   -0.5759    1.0833 C.ar      1 <0>         0.1446
      4 C3          1.1849    0.1771    2.0938 C.ar      1 <0>        -0.2132
      5 C4          1.8229   -0.4505    3.1426 C.ar      1 <0>        -0.0418
      6 C5          1.8822   -1.8431    3.1878 C.ar      1 <0>        -0.0737
      7 C6          1.2955   -2.5964    2.1713 C.ar      1 <0>        -0.0350
      8 C7          0.6540   -1.9628    1.1283 C.ar      1 <0>        -0.1526
      9 C8          2.5677   -2.5211    4.3134 C.2       1 <0>         0.2024
     10 C9          2.1842   -3.7485    4.9046 C.2       1 <0>        -0.3139
     11 C10         3.0927   -4.0191    5.9193 C.2       1 <0>         0.1588
     12 N1          3.9835   -3.0043    5.9415 N.pl3     1 <0>        -0.4233
     13 N2          3.6448   -2.0911    4.9370 N.2       1 <0>        -0.2700
     14 H1          4.7350   -2.9240    6.5496 H         1 <0>         0.4476
     15 C11         2.7229   -5.3015    6.5652 C.ar      1 <0>         0.0133
     16 C12         3.2913   -6.0119    7.6121 C.ar      1 <0>        -0.1085
     17 C13         2.7304   -7.2132    8.0267 C.ar      1 <0>        -0.0615
     18 C14         1.6074   -7.7129    7.4061 C.ar      1 <0>        -0.1241
     19 C15         1.0191   -7.0135    6.3498 C.ar      1 <0>         0.2470
     20 C16         1.5748   -5.8065    5.9269 C.ar      1 <0>        -0.1959
     21 C17         1.1987   -4.8479    4.8635 C.2       1 <0>         0.4877
     22 O2          0.2575   -4.9467    4.1011 O.2       1 <0>        -0.4373
     23 N3         -0.1149   -7.5186    5.7227 N.am      1 <0>        -0.6755
     24 C18        -0.9338   -8.3590    6.3858 C.2       1 <0>         0.7165
     25 O3         -0.7400   -8.5939    7.5628 O.2       1 <0>        -0.5439
     26 N4         -1.9674   -8.9390    5.7442 N.am      1 <0>        -0.5162
     27 N5         -2.1906   -8.6682    4.3878 N.am      1 <0>        -0.5298
     28 C19        -3.2242   -9.2482    3.7461 C.2       1 <0>         0.5727
     29 O4         -3.9630  -10.0065    4.3444 O.2       1 <0>        -0.5181
     30 C20        -3.4592   -8.9633    2.3185 C.ar      1 <0>        -0.1262
     31 C21        -2.5600   -8.1885    1.6006 C.ar      1 <0>        -0.0639
     32 C22        -2.7759   -7.9166    0.2556 C.ar      1 <0>        -0.1312
     33 C23        -3.8716   -8.3998   -0.3950 C.ar      1 <0>        -0.0628
     34 C24        -4.8093   -9.1892    0.2929 C.ar      1 <0>        -0.0605
     35 C25        -4.6035   -9.4827    1.6628 C.ar      1 <0>        -0.0072
     36 C26        -5.5360  -10.2749    2.3461 C.ar      1 <0>        -0.1202
     37 C27        -6.6248  -10.7577    1.6843 C.ar      1 <0>        -0.1091
     38 C28        -6.8259  -10.4757    0.3351 C.ar      1 <0>        -0.1123
     39 C29        -5.9475   -9.6985   -0.3563 C.ar      1 <0>        -0.1075
     40 H2          0.9806    1.8497    0.0565 H         1 <0>         0.0578
     41 H3         -0.5740    1.8417   -0.8103 H         1 <0>         0.1023
     42 H4         -0.5473    1.8216    0.9693 H         1 <0>         0.0577
     43 H5          1.1390    1.2555    2.0580 H         1 <0>         0.1338
     44 H6          2.2767    0.1357    3.9280 H         1 <0>         0.1311
     45 H7          1.3399   -3.6750    2.2033 H         1 <0>         0.1358
     46 H8          0.1956   -2.5456    0.3431 H         1 <0>         0.1374
     47 H9          4.1726   -5.6302    8.1061 H         1 <0>         0.1367
     48 H10         3.1792   -7.7602    8.8427 H         1 <0>         0.1456
     49 H11         1.1806   -8.6483    7.7367 H         1 <0>         0.1642
     50 H12        -0.3165   -7.2660    4.8082 H         1 <0>         0.4120
     51 H13        -2.5567   -9.5438    6.2214 H         1 <0>         0.4511
     52 H14        -1.6013   -8.0634    3.9106 H         1 <0>         0.4208
     53 H15        -1.6837   -7.7926    2.0922 H         1 <0>         0.1258
     54 H16        -2.0628   -7.3111   -0.2841 H         1 <0>         0.1358
     55 H17        -4.0200   -8.1753   -1.4409 H         1 <0>         0.1354
     56 H18        -5.3921  -10.5019    3.3921 H         1 <0>         0.1679
     57 H19        -7.3419  -11.3679    2.2133 H         1 <0>         0.1261
     58 H20        -7.6967  -10.8705   -0.1671 H         1 <0>         0.1257
     59 H21        -6.1161   -9.4872   -1.4019 H         1 <0>         0.1309
@<TRIPOS>BOND
     1    1    2 1
     2    1   40 1
     3    1   41 1
     4    1   42 1
     5    2    3 1
     6    3    8 ar
     7    3    4 ar
     8    4    5 ar
     9    4   43 1
    10    5    6 ar
    11    5   44 1
    12    6    7 ar
    13    6    9 1
    14    7    8 ar
    15    7   45 1
    16    8   46 1
    17    9   10 1
    18    9   13 2
    19   10   21 1
    20   10   11 2
    21   11   15 1
    22   11   12 1
    23   12   14 1
    24   12   13 1
    25   15   20 ar
    26   15   16 ar
    27   16   17 ar
    28   16   47 1
    29   17   18 ar
    30   17   48 1
    31   18   19 ar
    32   18   49 1
    33   19   20 ar
    34   19   23 1
    35   20   21 1
    36   21   22 2
    37   23   24 am
    38   23   50 1
    39   24   25 2
    40   24   26 am
    41   26   27 1
    42   26   51 1
    43   27   28 am
    44   27   52 1
    45   28   29 2
    46   28   30 1
    47   30   35 ar
    48   30   31 ar
    49   31   32 ar
    50   31   53 1
    51   32   33 ar
    52   32   54 1
    53   33   34 ar
    54   33   55 1
    55   34   39 ar
    56   34   35 ar
    57   35   36 ar
    58   36   37 ar
    59   36   56 1
    60   37   38 ar
    61   37   57 1
    62   38   39 ar
    63   38   58 1
    64   39   59 1
@<TRIPOS>MOLECULE
CHEMBL419753
   36    38     0     0     0
SMALL
USER_CHARGES

@<TRIPOS>ATOM
      1 C1         -0.0169    1.3920    0.0097 C.ar      1 <0>        -0.0476
      2 C2          1.1696    2.0948    0.0021 C.ar      1 <0>        -0.0969
      3 C3          2.3781    1.4188   -0.0135 C.ar      1 <0>        -0.0645
      4 C4          2.4034    0.0343   -0.0216 C.ar      1 <0>        -0.0966
      5 C5          1.2237   -0.6799   -0.0137 C.ar      1 <0>        -0.0788
      6 C6          0.0021   -0.0041    0.0020 C.ar      1 <0>        -0.1204
      7 C7         -1.2657   -0.7633    0.0100 C.2       1 <0>         0.5701
      8 O1         -2.3280   -0.1723    0.0234 O.2       1 <0>        -0.5019
      9 N1         -1.2442   -2.1108    0.0026 N.am      1 <0>        -0.6310
     10 C8         -2.4461   -2.8305    0.0102 C.2       1 <0>         0.3014
     11 C9         -3.7376   -2.2794    0.0199 C.2       1 <0>        -0.2644
     12 C10        -4.6244   -3.3003    0.0250 C.2       1 <0>         0.1120
     13 N2         -3.9261   -4.4553    0.0188 N.pl3     1 <0>        -0.4625
     14 H1         -4.3030   -5.3491    0.0201 H         1 <0>         0.4404
     15 N3         -2.5619   -4.1377    0.0038 N.2       1 <0>        -0.3184
     16 C11        -6.1258   -3.1713    0.0361 C.3       1 <0>        -0.0334
     17 C12        -6.6587   -3.3249    1.4756 C.3       1 <0>        -0.1159
     18 C13        -7.9868   -4.1041    1.3079 C.3       1 <0>        -0.1259
     19 C14        -7.6536   -5.1078    0.1762 C.3       1 <0>        -0.1275
     20 C15        -6.7584   -4.3050   -0.7901 C.3       1 <0>        -0.1251
     21 Br1         4.0004    2.3903   -0.0244 Br        1 <0>        -0.0361
     22 H2         -0.9587    1.9203    0.0260 H         1 <0>         0.1498
     23 H3          1.1563    3.1747    0.0081 H         1 <0>         0.1443
     24 H4          3.3490   -0.4873   -0.0345 H         1 <0>         0.1430
     25 H5          1.2447   -1.7597   -0.0205 H         1 <0>         0.1370
     26 H6         -0.3966   -2.5823   -0.0080 H         1 <0>         0.4155
     27 H7         -3.9797   -1.2269    0.0228 H         1 <0>         0.1724
     28 H8         -6.4202   -2.2039   -0.3706 H         1 <0>         0.1024
     29 H9         -5.9562   -3.8948    2.0837 H         1 <0>         0.0674
     30 H10        -6.8437   -2.3470    1.9202 H         1 <0>         0.0754
     31 H11        -8.2448   -4.6300    2.2271 H         1 <0>         0.0701
     32 H12        -8.7920   -3.4345    1.0056 H         1 <0>         0.0720
     33 H13        -7.1118   -5.9657    0.5745 H         1 <0>         0.0649
     34 H14        -8.5646   -5.4311   -0.3274 H         1 <0>         0.0705
     35 H15        -7.3604   -3.8876   -1.5972 H         1 <0>         0.0763
     36 H16        -5.9794   -4.9484   -1.1990 H         1 <0>         0.0620
@<TRIPOS>BOND
     1    1    6 ar
     2    1    2 ar
     3    1   22 1
     4    2    3 ar
     5    2   23 1
     6    3    4 ar
     7    3   21 1
     8    4    5 ar
     9    4   24 1
    10    5    6 ar
    11    5   25 1
    12    6    7 1
    13    7    8 2
    14    7    9 am
    15    9   10 1
    16    9   26 1
    17   10   15 2
    18   10   11 1
    19   11   12 2
    20   11   27 1
    21   12   13 1
    22   12   16 1
    23   13   14 1
    24   13   15 1
    25   16   20 1
    26   16   17 1
    27   16   28 1
    28   17   18 1
    29   17   29 1
    30   17   30 1
    31   18   19 1
    32   18   31 1
    33   18   32 1
    34   19   20 1
    35   19   33 1
    36   19   34 1
    37   20   35 1
    38   20   36 1
@<TRIPOS>MOLECULE
CHEMBL419753
   36    38     0     0     0
SMALL
USER_CHARGES

@<TRIPOS>ATOM
      1 C1         -0.0169    1.3920    0.0097 C.ar      1 <0>        -0.0464
      2 C2          1.1696    2.0949    0.0021 C.ar      1 <0>        -0.0955
      3 C3          2.3781    1.4188   -0.0130 C.ar      1 <0>        -0.0637
      4 C4          2.4035    0.0343   -0.0212 C.ar      1 <0>        -0.0963
      5 C5          1.2238   -0.6799   -0.0137 C.ar      1 <0>        -0.0804
      6 C6          0.0021   -0.0041    0.0020 C.ar      1 <0>        -0.1209
      7 C7         -1.2656   -0.7632    0.0105 C.2       1 <0>         0.5685
      8 O1         -2.3279   -0.1722    0.0243 O.2       1 <0>        -0.4916
      9 N1         -1.2441   -2.1108    0.0031 N.am      1 <0>        -0.6460
     10 C8         -2.4399   -2.8269    0.0111 C.2       1 <0>         0.3028
     11 C9         -3.6947   -2.2988    0.0264 C.2       1 <0>        -0.2643
     12 C10        -4.6055   -3.3585    0.0298 C.2       1 <0>         0.1023
     13 N2         -3.9342   -4.4814    0.0171 N.2       1 <0>        -0.2811
     14 H1         -1.8396   -4.8209   -0.0164 H         1 <0>         0.4361
     15 N3         -2.5666   -4.1790   -0.0008 N.pl3     1 <0>        -0.4934
     16 C11        -6.1069   -3.2297    0.0454 C.3       1 <0>        -0.0144
     17 C12        -6.5361   -1.9580   -0.7152 C.3       1 <0>        -0.1190
     18 C13        -7.7414   -1.4195    0.0950 C.3       1 <0>        -0.1248
     19 C14        -7.3226   -1.7019    1.5592 C.3       1 <0>        -0.1247
     20 C15        -6.6070   -3.0668    1.4915 C.3       1 <0>        -0.1122
     21 Br1         4.0004    2.3903   -0.0233 Br        1 <0>        -0.0338
     22 H2         -0.9587    1.9204    0.0260 H         1 <0>         0.1507
     23 H3          1.1563    3.1748    0.0077 H         1 <0>         0.1455
     24 H4          3.3491   -0.4873   -0.0337 H         1 <0>         0.1433
     25 H5          1.2448   -1.7597   -0.0205 H         1 <0>         0.1344
     26 H6         -0.3965   -2.5823   -0.0079 H         1 <0>         0.4116
     27 H7         -3.9421   -1.2476    0.0348 H         1 <0>         0.1754
     28 H8         -6.5616   -4.1094   -0.4101 H         1 <0>         0.0877
     29 H9         -5.7267   -1.2281   -0.7254 H         1 <0>         0.0782
     30 H10        -6.8403   -2.2061   -1.7321 H         1 <0>         0.0682
     31 H11        -7.8711   -0.3500   -0.0703 H         1 <0>         0.0686
     32 H12        -8.6513   -1.9637   -0.1584 H         1 <0>         0.0678
     33 H13        -6.6402   -0.9306    1.9163 H         1 <0>         0.0671
     34 H14        -8.2007   -1.7630    2.2021 H         1 <0>         0.0660
     35 H15        -7.3050   -3.8670    1.7375 H         1 <0>         0.0690
     36 H16        -5.7637   -3.0809    2.1820 H         1 <0>         0.0651
@<TRIPOS>BOND
     1    1    6 ar
     2    1    2 ar
     3    1   22 1
     4    2    3 ar
     5    2   23 1
     6    3    4 ar
     7    3   21 1
     8    4    5 ar
     9    4   24 1
    10    5    6 ar
    11    5   25 1
    12    6    7 1
    13    7    8 2
    14    7    9 am
    15    9   26 1
    16    9   10 1
    17   10   11 2
    18   10   15 1
    19   11   12 1
    20   11   27 1
    21   12   13 2
    22   12   16 1
    23   13   15 1
    24   14   15 1
    25   16   20 1
    26   16   17 1
    27   16   28 1
    28   17   18 1
    29   17   29 1
    30   17   30 1
    31   18   19 1
    32   18   31 1
    33   18   32 1
    34   19   20 1
    35   19   33 1
    36   19   34 1
    37   20   35 1
    38   20   36 1
@<TRIPOS>MOLECULE
CHEMBL478409
   57    59     0     0     0
SMALL
USER_CHARGES

@<TRIPOS>ATOM
      1 C1         -0.3035    1.5916   -0.2006 C.3       1 <0>        -0.1416
      2 C2         -0.2204    0.0919   -0.0785 C.cat     1 <0>         0.3298
      3 N1         -0.3374   -0.7570   -1.0651 N.pl3     1 <0>        -0.4778
      4 C3         -0.2111   -2.0037   -0.6007 C.2       1 <0>         0.0662
      5 C4         -0.0049   -1.9296    0.7438 C.2       1 <0>         0.0811
      6 N2         -0.0076   -0.5897    1.0654 N.pl3     1 <0>        -0.3913
      7 C5          0.1821   -0.0142    2.3992 C.3       1 <0>         0.1096
      8 C6          1.6270   -0.2375    2.8502 C.3       1 <0>        -0.1881
      9 C7         -0.1118    1.4866    2.3536 C.3       1 <0>        -0.1960
     10 C8          0.1887   -3.0612    1.6722 C.ar      1 <0>         0.2670
     11 C9          0.2594   -2.8438    3.0541 C.ar      1 <0>        -0.2824
     12 C10         0.4409   -3.9342    3.8831 C.ar      1 <0>         0.2146
     13 N3          0.5419   -5.1434    3.3517 N.ar      1 <0>        -0.5353
     14 C11         0.4716   -5.3214    2.0403 C.ar      1 <0>         0.5806
     15 N4          0.2934   -4.3070    1.2090 N.ar      1 <0>        -0.5453
     16 N5          0.5825   -6.6032    1.5266 N.pl3     1 <0>        -0.6307
     17 C12         0.6504   -7.6995    2.3916 C.ar      1 <0>         0.2093
     18 C13        -0.0655   -7.6924    3.5819 C.ar      1 <0>        -0.1342
     19 C14         0.0033   -8.7771    4.4338 C.ar      1 <0>         0.0058
     20 C15         0.7838   -9.8697    4.1029 C.ar      1 <0>        -0.6882
     21 C16         1.4982   -9.8799    2.9189 C.ar      1 <0>         0.0030
     22 C17         1.4292   -8.8007    2.0598 C.ar      1 <0>        -0.1622
     23 S1          0.8688  -11.2516    5.1927 S.o2      1 <0>         2.6955
     24 O1          2.0947  -11.9140    4.9139 O.2       1 <0>        -0.9535
     25 O2          0.5418  -10.7679    6.4882 O.2       1 <0>        -0.9542
     26 N6         -0.3420  -12.2939    4.7571 N.pl3     1 <0>        -1.1120
     27 C18        -0.3091  -12.9483    3.4468 C.3       1 <0>         0.1189
     28 C19        -1.3001  -14.1139    3.4338 C.3       1 <0>         0.0506
     29 O3         -2.6302  -13.6099    3.5713 O.3       1 <0>        -0.3916
     30 C20        -3.6384  -14.6225    3.5711 C.3       1 <0>         0.0299
     31 H1          0.7025    2.0103   -0.2277 H         1 <0>         0.1256
     32 H2         -0.8306    1.8528   -1.1182 H         1 <0>         0.1148
     33 H3         -0.8426    1.9966    0.6559 H         1 <0>         0.1416
     34 H4         -0.2638   -2.9091   -1.1870 H         1 <0>         0.2326
     35 H5         -0.4967   -0.4961    3.1028 H         1 <0>         0.1326
     36 H6          1.7910    0.2622    3.8049 H         1 <0>         0.1068
     37 H7          1.8115   -1.3058    2.9628 H         1 <0>         0.0828
     38 H8          2.3079    0.1722    2.1040 H         1 <0>         0.0772
     39 H9         -1.1588    1.6441    2.0945 H         1 <0>         0.0864
     40 H10         0.0910    1.9264    3.3301 H         1 <0>         0.1082
     41 H11         0.5231    1.9586    1.6037 H         1 <0>         0.0925
     42 H12         0.1744   -1.8474    3.4620 H         1 <0>         0.1599
     43 H13         0.5001   -3.8020    4.9534 H         1 <0>         0.1876
     44 H14         0.6132   -6.7400    0.5668 H         1 <0>         0.4306
     45 H15        -0.6750   -6.8393    3.8410 H         1 <0>         0.1401
     46 H16        -0.5528   -8.7720    5.3596 H         1 <0>         0.1463
     47 H17         2.1074  -10.7344    2.6638 H         1 <0>         0.1483
     48 H18         1.9839   -8.8112    1.1331 H         1 <0>         0.1382
     49 H19        -1.0731  -12.4712    5.3695 H         1 <0>         0.4247
     50 H20        -0.5835  -12.2295    2.6747 H         1 <0>         0.0743
     51 H21         0.6958  -13.3235    3.2532 H         1 <0>         0.0969
     52 H22        -1.2122  -14.6550    2.4917 H         1 <0>         0.0682
     53 H23        -1.0794  -14.7877    4.2617 H         1 <0>         0.0631
     54 H24        -3.5991  -15.1742    2.6318 H         1 <0>         0.0440
     55 H25        -3.4663  -15.3068    4.4019 H         1 <0>         0.0448
     56 H26        -4.6190  -14.1590    3.6794 H         1 <0>         0.0883
     57 H27        -0.4926   -0.5188   -1.9925 H         1 <0>         0.4662
@<TRIPOS>BOND
     1    1    2 1
     2    1   31 1
     3    1   32 1
     4    1   33 1
     5    2    6 1
     6    2    3 2
     7    3    4 1
     8    3   57 1
     9    4    5 2
    10    4   34 1
    11    5    6 1
    12    5   10 1
    13    6    7 1
    14    7    8 1
    15    7    9 1
    16    7   35 1
    17    8   36 1
    18    8   37 1
    19    8   38 1
    20    9   39 1
    21    9   40 1
    22    9   41 1
    23   10   15 ar
    24   10   11 ar
    25   11   12 ar
    26   11   42 1
    27   12   13 ar
    28   12   43 1
    29   13   14 ar
    30   14   15 ar
    31   14   16 1
    32   16   17 1
    33   16   44 1
    34   17   22 ar
    35   17   18 ar
    36   18   19 ar
    37   18   45 1
    38   19   20 ar
    39   19   46 1
    40   20   21 ar
    41   20   23 1
    42   21   22 ar
    43   21   47 1
    44   22   48 1
    45   23   24 2
    46   23   25 2
    47   23   26 1
    48   26   27 1
    49   26   49 1
    50   27   28 1
    51   27   50 1
    52   27   51 1
    53   28   29 1
    54   28   52 1
    55   28   53 1
    56   29   30 1
    57   30   54 1
    58   30   55 1
    59   30   56 1
@<TRIPOS>MOLECULE
CHEMBL478409
   56    58     0     0     0
SMALL
USER_CHARGES

@<TRIPOS>ATOM
      1 C1         -0.3035    1.5916   -0.2007 C.3       1 <0>        -0.0992
      2 C2         -0.2204    0.0919   -0.0786 C.2       1 <0>         0.2413
      3 N1         -0.3374   -0.7571   -1.0652 N.2       1 <0>        -0.4953
      4 C3         -0.2111   -2.0037   -0.6007 C.2       1 <0>         0.0611
      5 C4         -0.0049   -1.9296    0.7438 C.2       1 <0>        -0.0228
      6 N2         -0.0076   -0.5897    1.0654 N.pl3     1 <0>        -0.4384
      7 C5          0.1821   -0.0141    2.3992 C.3       1 <0>         0.1185
      8 C6          1.6270   -0.2374    2.8501 C.3       1 <0>        -0.1793
      9 C7         -0.1118    1.4867    2.3535 C.3       1 <0>        -0.1818
     10 C8          0.1887   -3.0611    1.6722 C.ar      1 <0>         0.3085
     11 C9          0.2594   -2.8437    3.0541 C.ar      1 <0>        -0.2981
     12 C10         0.4409   -3.9342    3.8831 C.ar      1 <0>         0.1981
     13 N3          0.5419   -5.1433    3.3517 N.ar      1 <0>        -0.5589
     14 C11         0.4716   -5.3213    2.0404 C.ar      1 <0>         0.5687
     15 N4          0.2934   -4.3069    1.2091 N.ar      1 <0>        -0.5508
     16 N5          0.5826   -6.6032    1.5267 N.pl3     1 <0>        -0.6387
     17 C12         0.6504   -7.6995    2.3917 C.ar      1 <0>         0.2273
     18 C13        -0.0655   -7.6923    3.5819 C.ar      1 <0>        -0.1365
     19 C14         0.0033   -8.7771    4.4339 C.ar      1 <0>         0.0050
     20 C15         0.7838   -9.8696    4.1031 C.ar      1 <0>        -0.6974
     21 C16         1.4982   -9.8798    2.9190 C.ar      1 <0>         0.0019
     22 C17         1.4292   -8.8007    2.0599 C.ar      1 <0>        -0.1699
     23 S1          0.8688  -11.2515    5.1929 S.o2      1 <0>         2.6977
     24 O1          2.0947  -11.9139    4.9141 O.2       1 <0>        -0.9581
     25 O2          0.5418  -10.7678    6.4884 O.2       1 <0>        -0.9578
     26 N6         -0.3420  -12.2938    4.7573 N.pl3     1 <0>        -1.1134
     27 C18        -0.3091  -12.9482    3.4470 C.3       1 <0>         0.1186
     28 C19        -1.3001  -14.1138    3.4340 C.3       1 <0>         0.0517
     29 O3         -2.6302  -13.6098    3.5715 O.3       1 <0>        -0.3900
     30 C20        -3.6384  -14.6225    3.5713 C.3       1 <0>         0.0303
     31 H1          0.7025    2.0103   -0.2277 H         1 <0>         0.0847
     32 H2         -0.8306    1.8528   -1.1183 H         1 <0>         0.0906
     33 H3         -0.8426    1.9966    0.6558 H         1 <0>         0.1023
     34 H4         -0.2638   -2.9092   -1.1870 H         1 <0>         0.1812
     35 H5         -0.4967   -0.4961    3.1028 H         1 <0>         0.1018
     36 H6          2.3079    0.1722    2.1040 H         1 <0>         0.0682
     37 H7          1.7910    0.2623    3.8049 H         1 <0>         0.0841
     38 H8          1.8115   -1.3058    2.9627 H         1 <0>         0.0738
     39 H9          0.0910    1.9265    3.3300 H         1 <0>         0.0837
     40 H10         0.5230    1.9586    1.6036 H         1 <0>         0.0871
     41 H11        -1.1588    1.6442    2.0944 H         1 <0>         0.0773
     42 H12         0.1744   -1.8473    3.4620 H         1 <0>         0.1559
     43 H13         0.5001   -3.8019    4.9534 H         1 <0>         0.1754
     44 H14         0.6132   -6.7400    0.5669 H         1 <0>         0.4284
     45 H15        -0.6750   -6.8392    3.8411 H         1 <0>         0.1418
     46 H16        -0.5528   -8.7720    5.3597 H         1 <0>         0.1428
     47 H17         2.1074  -10.7343    2.6640 H         1 <0>         0.1442
     48 H18         1.9839   -8.8112    1.1333 H         1 <0>         0.1364
     49 H19        -1.0731  -12.4711    5.3697 H         1 <0>         0.4232
     50 H20        -0.5835  -12.2294    2.6749 H         1 <0>         0.0756
     51 H21         0.6958  -13.3235    3.2534 H         1 <0>         0.0962
     52 H22        -1.2122  -14.6550    2.4919 H         1 <0>         0.0672
     53 H23        -1.0794  -14.7876    4.2619 H         1 <0>         0.0616
     54 H24        -4.6190  -14.1589    3.6796 H         1 <0>         0.0879
     55 H25        -3.5990  -15.1742    2.6321 H         1 <0>         0.0431
     56 H26        -3.4662  -15.3068    4.4021 H         1 <0>         0.0434
@<TRIPOS>BOND
     1    1    2 1
     2    1   31 1
     3    1   32 1
     4    1   33 1
     5    2    6 1
     6    2    3 2
     7    3    4 1
     8    4    5 2
     9    4   34 1
    10    5    6 1
    11    5   10 1
    12    6    7 1
    13    7    8 1
    14    7    9 1
    15    7   35 1
    16    8   36 1
    17    8   37 1
    18    8   38 1
    19    9   39 1
    20    9   40 1
    21    9   41 1
    22   10   15 ar
    23   10   11 ar
    24   11   12 ar
    25   11   42 1
    26   12   13 ar
    27   12   43 1
    28   13   14 ar
    29   14   15 ar
    30   14   16 1
    31   16   17 1
    32   16   44 1
    33   17   22 ar
    34   17   18 ar
    35   18   19 ar
    36   18   45 1
    37   19   20 ar
    38   19   46 1
    39   20   21 ar
    40   20   23 1
    41   21   22 ar
    42   21   47 1
    43   22   48 1
    44   23   24 2
    45   23   25 2
    46   23   26 1
    47   26   27 1
    48   26   49 1
    49   27   28 1
    50   27   50 1
    51   27   51 1
    52   28   29 1
    53   28   52 1
    54   28   53 1
    55   29   30 1
    56   30   54 1
    57   30   55 1
    58   30   56 1
@<TRIPOS>MOLECULE
CHEMBL112136
   33    35     0     0     0
SMALL
USER_CHARGES

@<TRIPOS>ATOM
      1 C1         -0.0169    1.3920    0.0097 C.ar      1 <0>        -0.0475
      2 C2          1.1696    2.0948    0.0021 C.ar      1 <0>        -0.0969
      3 C3          2.3781    1.4188   -0.0135 C.ar      1 <0>        -0.0645
      4 C4          2.4034    0.0343   -0.0216 C.ar      1 <0>        -0.0966
      5 C5          1.2237   -0.6799   -0.0137 C.ar      1 <0>        -0.0788
      6 C6          0.0021   -0.0041    0.0020 C.ar      1 <0>        -0.1204
      7 C7         -1.2657   -0.7633    0.0100 C.2       1 <0>         0.5702
      8 O1         -2.3280   -0.1723    0.0234 O.2       1 <0>        -0.5020
      9 N1         -1.2442   -2.1108    0.0026 N.am      1 <0>        -0.6310
     10 C8         -2.4461   -2.8305    0.0102 C.2       1 <0>         0.3010
     11 C9         -3.7376   -2.2794    0.0199 C.2       1 <0>        -0.2622
     12 C10        -4.6244   -3.3003    0.0250 C.2       1 <0>         0.1133
     13 N2         -3.9261   -4.4553    0.0188 N.pl3     1 <0>        -0.4626
     14 H1         -4.3030   -5.3491    0.0201 H         1 <0>         0.4398
     15 N3         -2.5619   -4.1377    0.0038 N.2       1 <0>        -0.3175
     16 C11        -6.1258   -3.1713    0.0361 C.3       1 <0>        -0.0523
     17 C12        -6.7861   -3.7686    1.2899 C.3       1 <0>        -0.1324
     18 C13        -7.8889   -4.3008    0.3596 C.3       1 <0>        -0.1412
     19 C14        -6.8442   -4.2675   -0.7684 C.3       1 <0>        -0.1368
     20 Br1         4.0004    2.3903   -0.0244 Br        1 <0>        -0.0361
     21 H2         -0.9587    1.9203    0.0260 H         1 <0>         0.1498
     22 H3          1.1563    3.1747    0.0081 H         1 <0>         0.1443
     23 H4          3.3490   -0.4873   -0.0345 H         1 <0>         0.1431
     24 H5          1.2447   -1.7597   -0.0205 H         1 <0>         0.1370
     25 H6         -0.3966   -2.5823   -0.0080 H         1 <0>         0.4156
     26 H7         -3.9797   -1.2269    0.0228 H         1 <0>         0.1726
     27 H8         -6.4657   -2.1629   -0.1998 H         1 <0>         0.1196
     28 H9         -6.1962   -4.5543    1.7618 H         1 <0>         0.0804
     29 H10        -7.1370   -3.0180    1.9982 H         1 <0>         0.0776
     30 H11        -8.2263   -5.3058    0.6127 H         1 <0>         0.0725
     31 H12        -8.7119   -3.6012    0.2133 H         1 <0>         0.0872
     32 H13        -7.2419   -3.9197   -1.7218 H         1 <0>         0.0778
     33 H14        -6.2702   -5.1896   -0.8592 H         1 <0>         0.0770
@<TRIPOS>BOND
     1    1    6 ar
     2    1    2 ar
     3    1   21 1
     4    2    3 ar
     5    2   22 1
     6    3    4 ar
     7    3   20 1
     8    4    5 ar
     9    4   23 1
    10    5    6 ar
    11    5   24 1
    12    6    7 1
    13    7    8 2
    14    7    9 am
    15    9   10 1
    16    9   25 1
    17   10   15 2
    18   10   11 1
    19   11   12 2
    20   11   26 1
    21   12   13 1
    22   12   16 1
    23   13   14 1
    24   13   15 1
    25   16   19 1
    26   16   17 1
    27   16   27 1
    28   17   18 1
    29   17   28 1
    30   17   29 1
    31   18   19 1
    32   18   30 1
    33   18   31 1
    34   19   32 1
    35   19   33 1
@<TRIPOS>MOLECULE
CHEMBL112136
   33    35     0     0     0
SMALL
USER_CHARGES

@<TRIPOS>ATOM
      1 C1         -0.0169    1.3920    0.0097 C.ar      1 <0>        -0.0464
      2 C2          1.1696    2.0949    0.0021 C.ar      1 <0>        -0.0955
      3 C3          2.3781    1.4188   -0.0130 C.ar      1 <0>        -0.0636
      4 C4          2.4035    0.0343   -0.0212 C.ar      1 <0>        -0.0963
      5 C5          1.2238   -0.6799   -0.0137 C.ar      1 <0>        -0.0803
      6 C6          0.0021   -0.0041    0.0020 C.ar      1 <0>        -0.1210
      7 C7         -1.2656   -0.7632    0.0105 C.2       1 <0>         0.5687
      8 O1         -2.3279   -0.1722    0.0243 O.2       1 <0>        -0.4921
      9 N1         -1.2441   -2.1108    0.0031 N.am      1 <0>        -0.6459
     10 C8         -2.4399   -2.8269    0.0111 C.2       1 <0>         0.3030
     11 C9         -3.6947   -2.2988    0.0264 C.2       1 <0>        -0.2651
     12 C10        -4.6055   -3.3585    0.0298 C.2       1 <0>         0.1042
     13 N2         -3.9342   -4.4814    0.0171 N.2       1 <0>        -0.2797
     14 H1         -1.8396   -4.8209   -0.0164 H         1 <0>         0.4362
     15 N3         -2.5666   -4.1790   -0.0008 N.pl3     1 <0>        -0.4932
     16 C11        -6.1069   -3.2297    0.0454 C.3       1 <0>        -0.0371
     17 C12        -6.6060   -1.8048   -0.2469 C.3       1 <0>        -0.1297
     18 C13        -7.6648   -2.0364    0.8441 C.3       1 <0>        -0.1426
     19 C14        -6.6962   -3.0622    1.4559 C.3       1 <0>        -0.1259
     20 Br1         4.0004    2.3903   -0.0233 Br        1 <0>        -0.0337
     21 H2         -0.9587    1.9204    0.0260 H         1 <0>         0.1508
     22 H3          1.1563    3.1748    0.0077 H         1 <0>         0.1455
     23 H4          3.3491   -0.4873   -0.0337 H         1 <0>         0.1434
     24 H5          1.2448   -1.7597   -0.0205 H         1 <0>         0.1344
     25 H6         -0.3965   -2.5823   -0.0079 H         1 <0>         0.4117
     26 H7         -3.9421   -1.2476    0.0348 H         1 <0>         0.1752
     27 H8         -6.6038   -3.9980   -0.5470 H         1 <0>         0.1055
     28 H9         -5.8829   -1.0288    0.0040 H         1 <0>         0.0902
     29 H10        -7.0268   -1.6858   -1.2454 H         1 <0>         0.0715
     30 H11        -7.8365   -1.1661    1.4776 H         1 <0>         0.0713
     31 H12        -8.5885   -2.4774    0.4695 H         1 <0>         0.0824
     32 H13        -7.1897   -3.9583    1.8322 H         1 <0>         0.0710
     33 H14        -5.9977   -2.6299    2.1724 H         1 <0>         0.0829
@<TRIPOS>BOND
     1    1    6 ar
     2    1    2 ar
     3    1   21 1
     4    2    3 ar
     5    2   22 1
     6    3    4 ar
     7    3   20 1
     8    4    5 ar
     9    4   23 1
    10    5    6 ar
    11    5   24 1
    12    6    7 1
    13    7    8 2
    14    7    9 am
    15    9   25 1
    16    9   10 1
    17   10   11 2
    18   10   15 1
    19   11   12 1
    20   11   26 1
    21   12   13 2
    22   12   16 1
    23   13   15 1
    24   14   15 1
    25   16   19 1
    26   16   17 1
    27   16   27 1
    28   17   18 1
    29   17   28 1
    30   17   29 1
    31   18   19 1
    32   18   30 1
    33   18   31 1
    34   19   32 1
    35   19   33 1
@<TRIPOS>MOLECULE
CHEMBL477568
   61    64     0     0     0
SMALL
USER_CHARGES

@<TRIPOS>ATOM
      1 C1          0.1565    1.5632   -0.2284 C.3       1 <0>        -0.1408
      2 C2          0.1793    0.0609   -0.1119 C.cat     1 <0>         0.3267
      3 N1          0.0248   -0.7791   -1.1011 N.pl3     1 <0>        -0.4777
      4 C3          0.1013   -2.0315   -0.6414 C.2       1 <0>         0.0632
      5 C4          0.3143   -1.9707    0.7027 C.2       1 <0>         0.0846
      6 N2          0.3682   -0.6329    1.0288 N.pl3     1 <0>        -0.3912
      7 C5          0.5864   -0.0704    2.3638 C.3       1 <0>         0.1104
      8 C6          2.0225   -0.3547    2.8086 C.3       1 <0>        -0.1878
      9 C7          0.3545    1.4414    2.3244 C.3       1 <0>        -0.1959
     10 C8          0.4634   -3.1125    1.6267 C.ar      1 <0>         0.2667
     11 C9          0.5474   -2.9031    3.0091 C.ar      1 <0>        -0.2938
     12 C10         0.6859   -4.0029    3.8340 C.ar      1 <0>         0.2134
     13 N3          0.7348   -5.2134    3.2983 N.ar      1 <0>        -0.5367
     14 C11         0.6531   -5.3839    1.9865 C.ar      1 <0>         0.5819
     15 N4          0.5148   -4.3600    1.1591 N.ar      1 <0>        -0.5524
     16 N5          0.7090   -6.6671    1.4683 N.pl3     1 <0>        -0.6207
     17 C12         0.7337   -7.7705    2.3312 C.ar      1 <0>         0.0830
     18 C13         0.0220   -7.7359    3.5231 C.ar      1 <0>        -0.0549
     19 C14         0.0460   -8.8235    4.3733 C.ar      1 <0>        -0.1815
     20 C15         0.7819   -9.9521    4.0365 C.ar      1 <0>         0.2179
     21 C16         1.4936   -9.9866    2.8445 C.ar      1 <0>        -0.1789
     22 C17         1.4653   -8.9009    1.9919 C.ar      1 <0>        -0.0837
     23 N6          0.8066  -11.0543    4.8985 N.pl3     1 <0>        -0.6273
     24 C18         1.6805  -12.2025    4.6196 C.3       1 <0>         0.1072
     25 C19         2.5725  -12.4480    5.8428 C.3       1 <0>         0.0951
     26 N7          1.7254  -12.4779    7.0434 N.am      1 <0>        -0.6163
     27 C20         0.8515  -11.3297    7.3223 C.3       1 <0>         0.0852
     28 C21        -0.0364  -11.0817    6.1021 C.3       1 <0>         0.1045
     29 C22         1.7492  -13.5394    7.8735 C.2       1 <0>         0.5137
     30 O1          2.5462  -14.4349    7.6900 O.2       1 <0>        -0.5404
     31 C23         0.7855  -13.6135    9.0297 C.3       1 <0>        -0.1801
     32 H1          1.1786    1.9409   -0.2574 H         1 <0>         0.1248
     33 H2         -0.3624    1.8488   -1.1434 H         1 <0>         0.1141
     34 H3         -0.3631    1.9864    0.6312 H         1 <0>         0.1409
     35 H4          0.0098   -2.9319   -1.2307 H         1 <0>         0.2324
     36 H5         -0.1092   -0.5264    3.0684 H         1 <0>         0.1326
     37 H6          2.1631   -1.4302    2.9169 H         1 <0>         0.0842
     38 H7          2.7170    0.0291    2.0612 H         1 <0>         0.0762
     39 H8          2.2104    0.1344    3.7644 H         1 <0>         0.1056
     40 H9         -0.6861    1.6429    2.0702 H         1 <0>         0.0859
     41 H10         0.5792    1.8690    3.3015 H         1 <0>         0.1074
     42 H11         1.0053    1.8893    1.5734 H         1 <0>         0.0921
     43 H12         0.5053   -1.9054    3.4206 H         1 <0>         0.1558
     44 H13         0.7539   -3.8769    4.9045 H         1 <0>         0.1825
     45 H14         0.7310   -6.8018    0.5080 H         1 <0>         0.4244
     46 H15        -0.5500   -6.8581    3.7852 H         1 <0>         0.1290
     47 H16        -0.5073   -8.7965    5.3005 H         1 <0>         0.1280
     48 H17         2.0662  -10.8641    2.5827 H         1 <0>         0.1302
     49 H18         2.0152   -8.9295    1.0628 H         1 <0>         0.1258
     50 H19         1.0727  -13.0866    4.4267 H         1 <0>         0.0702
     51 H20         2.3023  -11.9865    3.7508 H         1 <0>         0.0964
     52 H21         3.0873  -13.4027    5.7345 H         1 <0>         0.1040
     53 H22         3.3029  -11.6437    5.9303 H         1 <0>         0.0717
     54 H23         0.2297  -11.5457    8.1911 H         1 <0>         0.1054
     55 H24         1.4593  -10.4456    7.5151 H         1 <0>         0.0758
     56 H25        -0.5481  -10.1256    6.2121 H         1 <0>         0.0969
     57 H26        -0.7692  -11.8841    6.0172 H         1 <0>         0.0708
     58 H27         0.0878  -12.7778    8.9753 H         1 <0>         0.0821
     59 H28         0.2329  -14.5518    8.9826 H         1 <0>         0.0981
     60 H29         1.3388  -13.5644    9.9676 H         1 <0>         0.0977
     61 H30        -0.1229   -0.5313   -2.0273 H         1 <0>         0.4656
@<TRIPOS>BOND
     1    1    2 1
     2    1   32 1
     3    1   33 1
     4    1   34 1
     5    2    6 1
     6    2    3 2
     7    3    4 1
     8    3   61 1
     9    4    5 2
    10    4   35 1
    11    5    6 1
    12    5   10 1
    13    6    7 1
    14    7    8 1
    15    7    9 1
    16    7   36 1
    17    8   37 1
    18    8   38 1
    19    8   39 1
    20    9   40 1
    21    9   41 1
    22    9   42 1
    23   10   15 ar
    24   10   11 ar
    25   11   12 ar
    26   11   43 1
    27   12   13 ar
    28   12   44 1
    29   13   14 ar
    30   14   15 ar
    31   14   16 1
    32   16   17 1
    33   16   45 1
    34   17   22 ar
    35   17   18 ar
    36   18   19 ar
    37   18   46 1
    38   19   20 ar
    39   19   47 1
    40   20   21 ar
    41   20   23 1
    42   21   22 ar
    43   21   48 1
    44   22   49 1
    45   23   28 1
    46   23   24 1
    47   24   25 1
    48   24   50 1
    49   24   51 1
    50   25   26 1
    51   25   52 1
    52   25   53 1
    53   26   27 1
    54   26   29 am
    55   27   28 1
    56   27   54 1
    57   27   55 1
    58   28   56 1
    59   28   57 1
    60   29   30 2
    61   29   31 1
    62   31   58 1
    63   31   59 1
    64   31   60 1
@<TRIPOS>MOLECULE
CHEMBL477568
   60    63     0     0     0
SMALL
USER_CHARGES

@<TRIPOS>ATOM
      1 C1          1.9296    1.2750   -0.7040 C.3       1 <0>        -0.0983
      2 C2          1.5843   -0.1784   -0.5051 C.2       1 <0>         0.2380
      3 N1          0.8064   -0.8862   -1.2807 N.2       1 <0>        -0.4956
      4 C3          0.7196   -2.1338   -0.8099 C.2       1 <0>         0.0580
      5 C4          1.4818   -2.2090    0.3167 C.2       1 <0>        -0.0194
      6 N2          2.0328   -0.9591    0.4987 N.pl3     1 <0>        -0.4385
      7 C5          2.9338   -0.5541    1.5806 C.3       1 <0>         0.1192
      8 C6          4.2848   -1.2509    1.4070 C.3       1 <0>        -0.1790
      9 C7          3.1328    0.9623    1.5378 C.3       1 <0>        -0.1816
     10 C8          1.6821   -3.3963    1.1710 C.ar      1 <0>         0.3082
     11 C9          2.3894   -3.2951    2.3758 C.ar      1 <0>        -0.3085
     12 C10         2.5506   -4.4338    3.1417 C.ar      1 <0>         0.1973
     13 N3          2.0362   -5.5786    2.7181 N.ar      1 <0>        -0.5606
     14 C11         1.3710   -5.6470    1.5738 C.ar      1 <0>         0.5730
     15 N4          1.1879   -4.5810    0.8107 N.ar      1 <0>        -0.5577
     16 N5          0.8499   -6.8644    1.1683 N.pl3     1 <0>        -0.6336
     17 C12         0.9276   -7.9770    2.0162 C.ar      1 <0>         0.1059
     18 C13         0.8181   -7.8115    3.3905 C.ar      1 <0>        -0.0595
     19 C14         0.8941   -8.9080    4.2262 C.ar      1 <0>        -0.1786
     20 C15         1.0802  -10.1764    3.6922 C.ar      1 <0>         0.2052
     21 C16         1.1897  -10.3418    2.3177 C.ar      1 <0>        -0.1773
     22 C17         1.1083   -9.2458    1.4818 C.ar      1 <0>        -0.0938
     23 N6          1.1577  -11.2878    4.5392 N.pl3     1 <0>        -0.6308
     24 C18         1.4820  -12.6166    4.0017 C.3       1 <0>         0.1095
     25 C19         2.6974  -13.1678    4.7576 C.3       1 <0>         0.0948
     26 N7          2.4566  -13.0268    6.2005 N.am      1 <0>        -0.6141
     27 C20         2.1323  -11.6980    6.7379 C.3       1 <0>         0.0846
     28 C21         0.9224  -11.1459    5.9829 C.3       1 <0>         0.1065
     29 C22         2.5313  -14.0971    7.0161 C.2       1 <0>         0.5133
     30 O1          2.8983  -15.1676    6.5799 O.2       1 <0>        -0.5444
     31 C23         2.1588  -13.9638    8.4703 C.3       1 <0>        -0.1800
     32 H1          2.9067    1.3544   -1.1805 H         1 <0>         0.0838
     33 H2          1.1770    1.7438   -1.3380 H         1 <0>         0.0899
     34 H3          1.9549    1.7780    0.2627 H         1 <0>         0.1016
     35 H4          0.1466   -2.9393   -1.2449 H         1 <0>         0.1809
     36 H5          2.4999   -0.8367    2.5397 H         1 <0>         0.1017
     37 H6          4.9811   -0.8869    2.1625 H         1 <0>         0.0828
     38 H7          4.1557   -2.3273    1.5204 H         1 <0>         0.0751
     39 H8          4.6801   -1.0349    0.4144 H         1 <0>         0.0673
     40 H9          2.1810    1.4591    1.7256 H         1 <0>         0.0769
     41 H10         3.8529    1.2559    2.3016 H         1 <0>         0.0828
     42 H11         3.5064    1.2521    0.5557 H         1 <0>         0.0867
     43 H12         2.7993   -2.3494    2.6983 H         1 <0>         0.1521
     44 H13         3.0909   -4.3910    4.0758 H         1 <0>         0.1705
     45 H14         0.4311   -6.9467    0.2972 H         1 <0>         0.4222
     46 H15         0.6737   -6.8250    3.8058 H         1 <0>         0.1312
     47 H16         0.8093   -8.7792    5.2951 H         1 <0>         0.1247
     48 H17         1.3347  -11.3282    1.9023 H         1 <0>         0.1264
     49 H18         1.1889   -9.3750    0.4126 H         1 <0>         0.1244
     50 H19         0.6317  -13.2845    4.1397 H         1 <0>         0.0668
     51 H20         1.7175  -12.5346    2.9406 H         1 <0>         0.0960
     52 H21         2.8352  -14.2205    4.5108 H         1 <0>         0.1021
     53 H22         3.5879  -12.6045    4.4786 H         1 <0>         0.0719
     54 H23         1.8968  -11.7801    7.7990 H         1 <0>         0.1034
     55 H24         2.9826  -11.0301    6.6000 H         1 <0>         0.0763
     56 H25         0.7884  -10.0927    6.2299 H         1 <0>         0.0971
     57 H26         0.0313  -11.7066    6.2652 H         1 <0>         0.0675
     58 H27         1.7619  -12.9653    8.6536 H         1 <0>         0.0827
     59 H28         1.4021  -14.7072    8.7211 H         1 <0>         0.0967
     60 H29         3.0428  -14.1225    9.0878 H         1 <0>         0.0964
@<TRIPOS>BOND
     1    1    2 1
     2    1   32 1
     3    1   33 1
     4    1   34 1
     5    2    6 1
     6    2    3 2
     7    3    4 1
     8    4    5 2
     9    4   35 1
    10    5    6 1
    11    5   10 1
    12    6    7 1
    13    7    8 1
    14    7    9 1
    15    7   36 1
    16    8   37 1
    17    8   38 1
    18    8   39 1
    19    9   40 1
    20    9   41 1
    21    9   42 1
    22   10   15 ar
    23   10   11 ar
    24   11   12 ar
    25   11   43 1
    26   12   13 ar
    27   12   44 1
    28   13   14 ar
    29   14   15 ar
    30   14   16 1
    31   16   17 1
    32   16   45 1
    33   17   22 ar
    34   17   18 ar
    35   18   19 ar
    36   18   46 1
    37   19   20 ar
    38   19   47 1
    39   20   21 ar
    40   20   23 1
    41   21   22 ar
    42   21   48 1
    43   22   49 1
    44   23   28 1
    45   23   24 1
    46   24   25 1
    47   24   50 1
    48   24   51 1
    49   25   26 1
    50   25   52 1
    51   25   53 1
    52   26   27 1
    53   26   29 am
    54   27   28 1
    55   27   54 1
    56   27   55 1
    57   28   56 1
    58   28   57 1
    59   29   30 2
    60   29   31 1
    61   31   58 1
    62   31   59 1
    63   31   60 1
@<TRIPOS>MOLECULE
CHEMBL260416
   36    39     0     0     0
SMALL
USER_CHARGES

@<TRIPOS>ATOM
      1 C1         -0.0168    1.3901    0.0097 C.ar      1 <0>        -0.0418
      2 C2          1.1686    2.0947    0.0022 C.ar      1 <0>        -0.1444
      3 C3          2.3803    1.4176   -0.0135 C.ar      1 <0>         0.1534
      4 C4          2.4031    0.0281   -0.0217 C.ar      1 <0>        -0.1269
      5 C5          1.2209   -0.6821   -0.0137 C.ar      1 <0>        -0.0489
      6 C6          0.0021   -0.0041    0.0020 C.ar      1 <0>        -0.0618
      7 C7         -1.2703   -0.7640    0.0106 C.ar      1 <0>         0.2478
      8 C8         -1.2335   -2.1627    0.0085 C.ar      1 <0>        -0.2055
      9 C9         -2.4053   -2.8681    0.0168 C.ar      1 <0>         0.0137
     10 C10        -3.6100   -2.1542    0.0272 C.ar      1 <0>        -0.2314
     11 C11        -3.5813   -0.7452    0.0288 C.ar      1 <0>         0.3406
     12 N1         -2.4186   -0.1060    0.0255 N.ar      1 <0>        -0.4981
     13 N2         -4.8844   -0.3263    0.0389 N.pl3     1 <0>        -0.4853
     14 H1         -5.1763    0.5987    0.0419 H         1 <0>         0.4491
     15 N3         -5.7287   -1.4407    0.0436 N.2       1 <0>        -0.2191
     16 C12        -5.0208   -2.5391    0.0371 C.2       1 <0>         0.3278
     17 N4         -5.5215   -3.8456    0.0384 N.am      1 <0>        -0.6311
     18 C13        -6.8525   -4.0572    0.0480 C.2       1 <0>         0.5371
     19 O1         -7.6163   -3.1150    0.0554 O.2       1 <0>        -0.4836
     20 C14        -7.3918   -5.4644    0.0494 C.3       1 <0>        -0.1965
     21 C15        -8.1160   -5.9447   -1.2099 C.3       1 <0>        -0.1494
     22 C16        -8.9118   -5.6384    0.0604 C.3       1 <0>        -0.1432
     23 Br1         4.0563   -0.8896   -0.0443 Br        1 <0>        -0.0290
     24 O2          3.5463    2.1147   -0.0214 O.3       1 <0>        -0.4851
     25 H2         -0.9590    1.9178    0.0260 H         1 <0>         0.1477
     26 H3          1.1542    3.1746    0.0081 H         1 <0>         0.1445
     27 H4          1.2388   -1.7619   -0.0204 H         1 <0>         0.1447
     28 H5         -0.2865   -2.6817    0.0000 H         1 <0>         0.1474
     29 H6         -2.4015   -3.9481    0.0151 H         1 <0>         0.1438
     30 H7         -4.9107   -4.5991    0.0324 H         1 <0>         0.4243
     31 H8         -6.7976   -6.1950    0.5982 H         1 <0>         0.1308
     32 H9         -8.2023   -5.2429   -2.0394 H         1 <0>         0.1015
     33 H10        -7.9982   -6.9915   -1.4899 H         1 <0>         0.1096
     34 H11        -9.3176   -6.4837    0.6162 H         1 <0>         0.1083
     35 H12        -9.5218   -4.7351    0.0667 H         1 <0>         0.1103
     36 H13         3.8927    2.3118    0.8597 H         1 <0>         0.3987
@<TRIPOS>BOND
     1    1    6 ar
     2    1    2 ar
     3    1   25 1
     4    2    3 ar
     5    2   26 1
     6    3    4 ar
     7    3   24 1
     8    4    5 ar
     9    4   23 1
    10    5    6 ar
    11    5   27 1
    12    6    7 1
    13    7   12 ar
    14    7    8 ar
    15    8    9 ar
    16    8   28 1
    17    9   10 ar
    18    9   29 1
    19   10   16 1
    20   10   11 ar
    21   11   12 ar
    22   11   13 1
    23   13   14 1
    24   13   15 1
    25   15   16 2
    26   16   17 1
    27   17   18 am
    28   17   30 1
    29   18   19 2
    30   18   20 1
    31   20   22 1
    32   20   21 1
    33   20   31 1
    34   21   22 1
    35   21   32 1
    36   21   33 1
    37   22   34 1
    38   22   35 1
    39   24   36 1
@<TRIPOS>MOLECULE
CHEMBL392614
   51    54     0     0     0
SMALL
USER_CHARGES

@<TRIPOS>ATOM
      1 C1         -0.0428    1.5324    0.0339 C.3       1 <0>        -0.1656
      2 C2         -0.0211    0.0027    0.0179 C.3       1 <0>         0.1312
      3 N1         -1.3953   -0.5052    0.0183 N.am      1 <0>        -0.7479
      4 C3         -1.6228   -1.8336    0.0054 C.2       1 <0>         0.7074
      5 O1         -0.6918   -2.6088   -0.0975 O.2       1 <0>        -0.5817
      6 N2         -2.8822   -2.3026    0.1066 N.am      1 <0>        -0.6267
      7 C4         -4.0266   -1.3811    0.1057 C.3       1 <0>         0.1085
      8 C5         -5.0119   -1.8196   -0.9822 C.3       1 <0>        -0.1300
      9 C6         -5.3869   -3.2872   -0.7636 C.3       1 <0>        -0.1288
     10 C7         -4.1323   -4.1572   -0.8690 C.3       1 <0>         0.1486
     11 H1         -3.6761   -4.0204   -1.8495 H         1 <0>         0.0981
     12 C8         -3.1373   -3.7456    0.2140 C.3       1 <0>         0.1201
     13 N3         -4.4972   -5.5649   -0.6916 N.pl3     1 <0>        -0.6888
     14 C9         -3.7012   -6.5601   -1.2335 C.ar      1 <0>         0.5713
     15 N4         -2.6104   -6.2199   -1.9046 N.ar      1 <0>        -0.5550
     16 C10        -1.8219   -7.1411   -2.4381 C.ar      1 <0>         0.2138
     17 C11        -2.1457   -8.4771   -2.2900 C.ar      1 <0>        -0.2029
     18 C12        -3.3043   -8.8069   -1.5758 C.ar      1 <0>         0.3215
     19 N5         -4.0468   -7.8261   -1.0628 N.ar      1 <0>        -0.5482
     20 C13        -3.6948  -10.2210   -1.3892 C.2       1 <0>        -0.1561
     21 C14        -2.9011  -11.2302   -0.9470 C.2       1 <0>         0.1131
     22 N6         -3.6118  -12.3909   -0.9062 N.pl3     1 <0>        -0.5831
     23 H2         -3.2578  -13.2483   -0.6225 H         1 <0>         0.4217
     24 C15        -4.9068  -12.1724   -1.3255 C.ar      1 <0>         0.0905
     25 C16        -5.0217  -10.8079   -1.6404 C.ar      1 <0>        -0.0686
     26 C17        -6.2367  -10.2955   -2.0908 C.ar      1 <0>        -0.0656
     27 C18        -7.3230  -11.1322   -2.2216 C.ar      1 <0>        -0.1402
     28 C19        -7.2117  -12.4791   -1.9075 C.ar      1 <0>        -0.0985
     29 C20        -6.0143  -13.0016   -1.4695 C.ar      1 <0>        -0.1260
     30 Cl1        -1.1402   -9.7163   -2.9737 Cl        1 <0>        -0.0454
     31 H3          0.9796    1.9103    0.0336 H         1 <0>         0.0763
     32 H4         -0.5654    1.8977   -0.8502 H         1 <0>         0.0614
     33 H5         -0.5580    1.8791    0.9297 H         1 <0>         0.0610
     34 H6          0.4941   -0.3441   -0.8779 H         1 <0>         0.0673
     35 H7          0.5015   -0.3626    0.9020 H         1 <0>         0.0653
     36 H8         -2.1414    0.1145    0.0278 H         1 <0>         0.3946
     37 H9         -4.5191   -1.4091    1.0776 H         1 <0>         0.0729
     38 H10        -3.6802   -0.3686   -0.1017 H         1 <0>         0.0792
     39 H11        -5.9093   -1.2032   -0.9302 H         1 <0>         0.0849
     40 H12        -4.5474   -1.7049   -1.9616 H         1 <0>         0.0726
     41 H13        -5.8289   -3.4056    0.2257 H         1 <0>         0.0730
     42 H14        -6.1070   -3.5948   -1.5219 H         1 <0>         0.0764
     43 H15        -2.2044   -4.2927    0.0781 H         1 <0>         0.1010
     44 H16        -3.5558   -3.9707    1.1950 H         1 <0>         0.0642
     45 H17        -5.2963   -5.7999   -0.1946 H         1 <0>         0.4162
     46 H18        -0.9356   -6.8515   -2.9832 H         1 <0>         0.1764
     47 H19        -1.8624  -11.1277   -0.6698 H         1 <0>         0.1767
     48 H20        -6.3264   -9.2475   -2.3357 H         1 <0>         0.1207
     49 H21        -8.2661  -10.7379   -2.5701 H         1 <0>         0.1241
     50 H22        -8.0702  -13.1257   -2.0139 H         1 <0>         0.1270
     51 H23        -5.9392  -14.0511   -1.2259 H         1 <0>         0.1221
@<TRIPOS>BOND
     1    1    2 1
     2    1   31 1
     3    1   32 1
     4    1   33 1
     5    2    3 1
     6    2   34 1
     7    2   35 1
     8    3    4 am
     9    3   36 1
    10    4    5 2
    11    4    6 am
    12    6   12 1
    13    6    7 1
    14    7    8 1
    15    7   37 1
    16    7   38 1
    17    8    9 1
    18    8   39 1
    19    8   40 1
    20    9   10 1
    21    9   41 1
    22    9   42 1
    23   10   11 1
    24   10   12 1
    25   10   13 1
    26   12   43 1
    27   12   44 1
    28   13   14 1
    29   13   45 1
    30   14   19 ar
    31   14   15 ar
    32   15   16 ar
    33   16   17 ar
    34   16   46 1
    35   17   18 ar
    36   17   30 1
    37   18   19 ar
    38   18   20 1
    39   20   25 1
    40   20   21 2
    41   21   22 1
    42   21   47 1
    43   22   23 1
    44   22   24 1
    45   24   29 ar
    46   24   25 ar
    47   25   26 ar
    48   26   27 ar
    49   26   48 1
    50   27   28 ar
    51   27   49 1
    52   28   29 ar
    53   28   50 1
    54   29   51 1
@<TRIPOS>MOLECULE
CHEMBL1081296
   49    52     0     0     0
SMALL
USER_CHARGES

@<TRIPOS>ATOM
      1 C1         -0.0167    1.3781    0.0096 C.ar      1 <0>        -0.1413
      2 C2          1.1709    2.0855    0.0021 C.ar      1 <0>        -0.0581
      3 C3          2.3773    1.4107   -0.0130 C.ar      1 <0>        -0.1628
      4 C4          2.3960    0.0285   -0.0201 C.ar      1 <0>        -0.0559
      5 C5          1.2085   -0.6789   -0.0117 C.ar      1 <0>        -0.1023
      6 C6          0.0021   -0.0041    0.0020 C.ar      1 <0>        -0.0988
      7 C7         -1.2926   -0.7753    0.0107 C.3       1 <0>        -0.0994
      8 C8         -1.7450   -1.0285   -1.4288 C.3       1 <0>         0.0243
      9 H1         -0.9463   -1.5264   -1.9784 H         1 <0>         0.1553
     10 C9         -2.9907   -1.9168   -1.4231 C.3       1 <0>         0.1130
     11 N1         -3.4936   -2.0615   -2.7914 N.pl3     1 <0>        -0.7045
     12 C10        -4.6200   -2.8256   -3.0370 C.2       1 <0>         0.2815
     13 N2         -5.3655   -3.4844   -2.1720 N.2       1 <0>        -0.5639
     14 C11        -6.4167   -4.1731   -2.5617 C.2       1 <0>         0.0989
     15 C12        -6.6931   -4.1689   -3.9043 C.2       1 <0>        -0.1885
     16 S1         -5.3724   -3.1315   -4.5110 S.3       1 <0>         0.1457
     17 C13        -7.7836   -4.8338   -4.6434 C.ar      1 <0>         0.0469
     18 C14        -8.7309   -5.6046   -3.9444 C.ar      1 <0>        -0.1106
     19 C15        -9.7435   -6.2260   -4.6019 C.ar      1 <0>        -0.0556
     20 C16        -9.8518   -6.1010   -5.9972 C.ar      1 <0>        -0.1700
     21 C17       -10.8819   -6.7246   -6.7203 C.ar      1 <0>         0.2060
     22 N3        -10.9186   -6.5611   -8.0284 N.ar      1 <0>        -0.5241
     23 C18       -10.0146   -5.8298   -8.6635 C.ar      1 <0>         0.3090
     24 N4         -9.0296   -5.2233   -8.0454 N.ar      1 <0>        -0.5098
     25 C19        -8.9026   -5.3257   -6.7149 C.ar      1 <0>         0.1672
     26 C20        -7.8690   -4.6886   -6.0206 C.ar      1 <0>        -0.0976
     27 N5         -2.0599    0.2523   -2.0756 N.4       1 <0>        -0.6403
     28 C21         3.6720    2.1819   -0.0222 C.3       1 <0>         0.5037
     29 F1          4.0857    2.4144    1.2938 F         1 <0>        -0.1688
     30 F2          4.6506    1.4423   -0.6949 F         1 <0>        -0.1714
     31 F3          3.4816    3.4050   -0.6742 F         1 <0>        -0.1728
     32 H2         -0.9591    1.9053    0.0259 H         1 <0>         0.1371
     33 H3          1.1563    3.1654    0.0076 H         1 <0>         0.1472
     34 H4          3.3385   -0.4987   -0.0326 H         1 <0>         0.1479
     35 H5          1.2231   -1.7588   -0.0179 H         1 <0>         0.1451
     36 H6         -1.1443   -1.7285    0.5180 H         1 <0>         0.1327
     37 H7         -2.0551   -0.1993    0.5352 H         1 <0>         0.1104
     38 H8         -2.7351   -2.8985   -1.0242 H         1 <0>         0.1176
     39 H9         -3.7596   -1.4603   -0.7997 H         1 <0>         0.1006
     40 H10        -3.0366   -1.6214   -3.5252 H         1 <0>         0.4111
     41 H11        -7.0314   -4.7153   -1.8584 H         1 <0>         0.1831
     42 H12        -8.6515   -5.7034   -2.8718 H         1 <0>         0.1380
     43 H13       -10.4637   -6.8153   -4.0537 H         1 <0>         0.1468
     44 H14       -11.6260   -7.3242   -6.2171 H         1 <0>         0.1802
     45 H15       -10.0918   -5.7291   -9.7360 H         1 <0>         0.2007
     46 H16        -7.1418   -4.0926   -6.5520 H         1 <0>         0.1383
     47 H17        -1.2384    0.8381   -2.0794 H         1 <0>         0.4382
     48 H18        -2.3583    0.0853   -3.0249 H         1 <0>         0.4322
     49 H19        -2.7994    0.7132   -1.5668 H         1 <0>         0.4378
@<TRIPOS>BOND
     1    1    6 ar
     2    1    2 ar
     3    1   32 1
     4    2    3 ar
     5    2   33 1
     6    3    4 ar
     7    3   28 1
     8    4    5 ar
     9    4   34 1
    10    5    6 ar
    11    5   35 1
    12    6    7 1
    13    7    8 1
    14    7   36 1
    15    7   37 1
    16    8    9 1
    17    8   10 1
    18    8   27 1
    19   10   11 1
    20   10   38 1
    21   10   39 1
    22   11   12 1
    23   11   40 1
    24   12   16 1
    25   12   13 2
    26   13   14 1
    27   14   15 2
    28   14   41 1
    29   15   16 1
    30   15   17 1
    31   17   26 ar
    32   17   18 ar
    33   18   19 ar
    34   18   42 1
    35   19   20 ar
    36   19   43 1
    37   20   25 ar
    38   20   21 ar
    39   21   22 ar
    40   21   44 1
    41   22   23 ar
    42   23   24 ar
    43   23   45 1
    44   24   25 ar
    45   25   26 ar
    46   26   46 1
    47   27   47 1
    48   27   48 1
    49   27   49 1
    50   28   29 1
    51   28   30 1
    52   28   31 1
@<TRIPOS>MOLECULE
CHEMBL356034
   59    63     0     0     0
SMALL
USER_CHARGES

@<TRIPOS>ATOM
      1 C1         -0.0164    1.3602    0.0095 C.2       1 <0>         0.2428
      2 N1          1.2002    1.8207    0.0004 N.2       1 <0>        -0.4562
      3 C2          2.0747    0.7847   -0.0135 C.ar      1 <0>        -0.1470
      4 C3          3.4764    0.6773   -0.0279 C.ar      1 <0>         0.5407
      5 N2          4.0206   -0.5342   -0.0400 N.ar      1 <0>        -0.6274
      6 C4          3.2653   -1.6255   -0.0386 C.ar      1 <0>         0.6231
      7 N3          1.9436   -1.5695   -0.0253 N.ar      1 <0>        -0.6088
      8 C5          1.3163   -0.3973   -0.0126 C.ar      1 <0>         0.3424
      9 N4          0.0021   -0.0041    0.0020 N.pl3     1 <0>        -0.4632
     10 C6         -1.1670   -0.8870    0.0084 C.3       1 <0>         0.1356
     11 C7         -2.0509   -0.5845    1.2360 C.3       1 <0>        -0.1346
     12 C8         -3.1277    0.3901    0.6979 C.3       1 <0>        -0.1289
     13 C9         -3.4158   -0.1670   -0.7184 C.3       1 <0>        -0.1253
     14 C10        -2.0348   -0.6215   -1.2342 C.3       1 <0>        -0.1351
     15 N5          3.8820   -2.8657   -0.0520 N.pl3     1 <0>        -0.6986
     16 C11         5.3441   -2.9566   -0.0674 C.3       1 <0>         0.1643
     17 C12         5.8463   -2.8544   -1.5090 C.3       1 <0>        -0.1306
     18 C13         7.3733   -2.9493   -1.5251 C.3       1 <0>        -0.1375
     19 C14         7.8073   -4.2893   -0.9275 C.3       1 <0>         0.0231
     20 C15         7.3051   -4.3914    0.5141 C.3       1 <0>        -0.1356
     21 C16         5.7781   -4.2965    0.5301 C.3       1 <0>        -0.1291
     22 N6          9.2734   -4.3804   -0.9429 N.4       1 <0>        -0.6368
     23 N7          4.2719    1.8093   -0.0299 N.pl3     1 <0>        -0.6901
     24 C17         5.7311    1.6791   -0.0449 C.3       1 <0>         0.1653
     25 C18         6.3672    3.0706   -0.0440 C.3       1 <0>        -0.1780
     26 C19         7.1973    3.4687   -1.2660 C.3       1 <0>        -0.1740
     27 C20         7.8916    3.1504    0.0597 C.3       1 <0>        -0.1666
     28 H1         -0.9091    1.9679    0.0254 H         1 <0>         0.2163
     29 H2         -0.8475   -1.9290    0.0251 H         1 <0>         0.1082
     30 H3         -2.5147   -1.4986    1.6067 H         1 <0>         0.0883
     31 H4         -1.4635   -0.1082    2.0210 H         1 <0>         0.0756
     32 H5         -4.0244    0.3549    1.3166 H         1 <0>         0.0778
     33 H6         -2.7359    1.4056    0.6411 H         1 <0>         0.0694
     34 H7         -4.1000   -1.0137   -0.6634 H         1 <0>         0.0737
     35 H8         -3.8245    0.6139   -1.3597 H         1 <0>         0.0746
     36 H9         -1.5862    0.1642   -1.8420 H         1 <0>         0.0753
     37 H10        -2.1372   -1.5349   -1.8202 H         1 <0>         0.0800
     38 H11         3.3458   -3.6740   -0.0513 H         1 <0>         0.4149
     39 H12         5.7650   -2.1423    0.5225 H         1 <0>         0.0973
     40 H13         5.4255   -3.6687   -2.0989 H         1 <0>         0.0746
     41 H14         5.5371   -1.8998   -1.9347 H         1 <0>         0.0909
     42 H15         7.7311   -2.8766   -2.5521 H         1 <0>         0.0900
     43 H16         7.7942   -2.1351   -0.9351 H         1 <0>         0.0907
     44 H17         7.3864   -5.1035   -1.5175 H         1 <0>         0.1431
     45 H18         7.6143   -5.3461    0.9398 H         1 <0>         0.0937
     46 H19         7.7260   -3.5772    1.1040 H         1 <0>         0.0918
     47 H20         5.4203   -4.3693    1.5572 H         1 <0>         0.0931
     48 H21         5.3573   -5.1108   -0.0598 H         1 <0>         0.0815
     49 H22         9.6630   -3.6267   -0.3969 H         1 <0>         0.4334
     50 H23         9.5596   -5.2641   -0.5489 H         1 <0>         0.4363
     51 H24         3.8635    2.6891   -0.0213 H         1 <0>         0.4219
     52 H25         6.0560    1.1305    0.8391 H         1 <0>         0.0698
     53 H26         6.0385    1.1397   -0.9408 H         1 <0>         0.0666
     54 H27         5.7878    3.8521    0.4475 H         1 <0>         0.1128
     55 H28         7.2902    2.7393   -2.0707 H         1 <0>         0.0951
     56 H29         7.1640    4.5123   -1.5788 H         1 <0>         0.0989
     57 H30         8.3151    3.9846    0.6191 H         1 <0>         0.1002
     58 H31         8.4413    2.2116    0.1272 H         1 <0>         0.0941
     59 H32         9.6046   -4.3131   -1.8937 H         1 <0>         0.4367
@<TRIPOS>BOND
     1    1    9 1
     2    1    2 2
     3    1   28 1
     4    2    3 1
     5    3    8 ar
     6    3    4 ar
     7    4    5 ar
     8    4   23 1
     9    5    6 ar
    10    6    7 ar
    11    6   15 1
    12    7    8 ar
    13    8    9 1
    14    9   10 1
    15   10   14 1
    16   10   11 1
    17   10   29 1
    18   11   12 1
    19   11   30 1
    20   11   31 1
    21   12   13 1
    22   12   32 1
    23   12   33 1
    24   13   14 1
    25   13   34 1
    26   13   35 1
    27   14   36 1
    28   14   37 1
    29   15   16 1
    30   15   38 1
    31   16   21 1
    32   16   17 1
    33   16   39 1
    34   17   18 1
    35   17   40 1
    36   17   41 1
    37   18   19 1
    38   18   42 1
    39   18   43 1
    40   19   20 1
    41   19   22 1
    42   19   44 1
    43   20   21 1
    44   20   45 1
    45   20   46 1
    46   21   47 1
    47   21   48 1
    48   22   49 1
    49   22   50 1
    50   22   59 1
    51   23   24 1
    52   23   51 1
    53   24   25 1
    54   24   52 1
    55   24   53 1
    56   25   27 1
    57   25   26 1
    58   25   54 1
    59   26   27 1
    60   26   55 1
    61   26   56 1
    62   27   57 1
    63   27   58 1
@<TRIPOS>MOLECULE
CHEMBL232123
   35    37     0     0     0
SMALL
USER_CHARGES

@<TRIPOS>ATOM
      1 C1          0.3017    1.5054   -0.0263 C.3       1 <0>        -0.1158
      2 C2          0.3030   -0.0015   -0.0322 C.ar      1 <0>        -0.0606
      3 C3          0.0422   -0.6823   -1.2012 C.ar      1 <0>        -0.0891
      4 C4          0.0443   -2.0778   -1.2047 C.ar      1 <0>        -0.1701
      5 C5         -0.2304   -2.8390   -2.4386 C.2       1 <0>         0.3990
      6 O1         -0.4678   -2.2726   -3.4932 O.2       1 <0>        -0.4633
      7 C6         -0.2074   -4.2529   -2.3516 C.2       1 <0>        -0.0556
      8 C7          0.0649   -4.8486   -1.1432 C.2       1 <0>         0.1449
      9 O2          0.3117   -4.1356   -0.0319 O.3       1 <0>        -0.2030
     10 C8          0.3107   -2.7862   -0.0240 C.ar      1 <0>         0.0667
     11 C9          0.5726   -2.0798    1.1516 C.ar      1 <0>         0.2124
     12 C10         0.5724   -0.6954    1.1375 C.ar      1 <0>        -0.1452
     13 N1          0.8400   -2.7690    2.3390 N.pl3     1 <0>        -0.8693
     14 C11         0.0862   -6.3206   -1.0641 C.ar      1 <0>        -0.0418
     15 C12         0.7910   -7.0633   -2.0157 C.ar      1 <0>        -0.0569
     16 C13         0.8097   -8.4394   -1.9398 C.ar      1 <0>        -0.1325
     17 C14         0.1299   -9.0909   -0.9201 C.ar      1 <0>         0.1017
     18 C15        -0.5754   -8.3569    0.0320 C.ar      1 <0>         0.0771
     19 C16        -0.5936   -6.9769   -0.0338 C.ar      1 <0>        -0.0967
     20 O3         -1.2406   -8.9988    1.0294 O.3       1 <0>        -0.4839
     21 O4          0.1516  -10.4476   -0.8501 O.3       1 <0>        -0.4857
     22 O5         -0.4528   -5.0134   -3.4530 O.3       1 <0>        -0.4516
     23 H1          1.3031    1.8706   -0.2545 H         1 <0>         0.0762
     24 H2         -0.3983    1.8711   -0.7776 H         1 <0>         0.0721
     25 H3         -0.0006    1.8647    0.9574 H         1 <0>         0.0707
     26 H4         -0.1635   -0.1381   -2.1111 H         1 <0>         0.1404
     27 H5          0.7800   -0.1509    2.0469 H         1 <0>         0.1398
     28 H6          0.8437   -3.7389    2.3465 H         1 <0>         0.4052
     29 H7          1.0218   -2.2769    3.1550 H         1 <0>         0.4048
     30 H8          1.3206   -6.5590   -2.8104 H         1 <0>         0.1404
     31 H9          1.3543   -9.0121   -2.6759 H         1 <0>         0.1427
     32 H10        -1.1357   -6.4068    0.7061 H         1 <0>         0.1394
     33 H11        -0.7101   -9.1468    1.8243 H         1 <0>         0.3890
     34 H12         0.8809  -10.8027   -0.3237 H         1 <0>         0.3917
     35 H13        -0.6336   -4.5006   -4.2527 H         1 <0>         0.4070
@<TRIPOS>BOND
     1    1    2 1
     2    1   23 1
     3    1   24 1
     4    1   25 1
     5    2   12 ar
     6    2    3 ar
     7    3    4 ar
     8    3   26 1
     9    4   10 ar
    10    4    5 1
    11    5    6 2
    12    5    7 1
    13    7    8 2
    14    7   22 1
    15    8    9 1
    16    8   14 1
    17    9   10 1
    18   10   11 ar
    19   11   12 ar
    20   11   13 1
    21   12   27 1
    22   13   28 1
    23   13   29 1
    24   14   19 ar
    25   14   15 ar
    26   15   16 ar
    27   15   30 1
    28   16   17 ar
    29   16   31 1
    30   17   18 ar
    31   17   21 1
    32   18   19 ar
    33   18   20 1
    34   19   32 1
    35   20   33 1
    36   21   34 1
    37   22   35 1
@<TRIPOS>MOLECULE
CHEMBL294884
   42    45     0     0     0
SMALL
USER_CHARGES

@<TRIPOS>ATOM
      1 C1          0.1079    1.1575   -0.1606 C.3       1 <0>         0.0812
      2 N1          0.2337   -0.2893    0.0321 N.pl3     1 <0>        -1.1199
      3 S1          0.8991   -0.8841    1.4270 S.o2      1 <0>         2.7002
      4 O1          0.8569   -2.3008    1.3253 O.2       1 <0>        -0.9563
      5 O2          2.1105   -0.1710    1.6353 O.2       1 <0>        -0.9525
      6 C2         -0.1792   -0.4417    2.7485 C.ar      1 <0>        -0.6989
      7 C3         -0.0020    0.7608    3.4128 C.ar      1 <0>         0.0134
      8 C4         -0.8382    1.1213    4.4496 C.ar      1 <0>        -0.1538
      9 C5         -1.8720    0.2763    4.8384 C.ar      1 <0>         0.1981
     10 C6         -2.0484   -0.9393    4.1635 C.ar      1 <0>        -0.1175
     11 C7         -1.2028   -1.2912    3.1164 C.ar      1 <0>         0.0373
     12 C8         -3.2097   -1.6030    4.7966 C.2       1 <0>        -0.1973
     13 C9         -3.7598   -2.8261    4.4685 C.2       1 <0>         0.0806
     14 C10        -4.7723   -3.3850    5.2785 C.2       1 <0>         0.0004
     15 C11        -5.8169   -4.1492    4.8467 C.2       1 <0>        -0.0741
     16 C12        -6.5835   -4.4906    5.9971 C.2       1 <0>        -0.2503
     17 C13        -5.9742   -3.9245    7.0795 C.2       1 <0>         0.1280
     18 N2         -4.8790   -3.2601    6.6540 N.pl3     1 <0>        -0.5133
     19 H1         -4.2644   -2.7698    7.2221 H         1 <0>         0.4266
     20 C14        -7.7979   -5.3167    5.8581 C.2       1 <0>         0.6014
     21 O3         -8.5929   -5.4442    6.7695 O.2       1 <0>        -0.5391
     22 N3         -7.9812   -5.9250    4.6626 N.am      1 <0>        -0.7321
     23 C15        -6.9698   -5.9482    3.6168 C.3       1 <0>         0.1211
     24 C16        -6.2171   -4.6241    3.4763 C.3       1 <0>        -0.0727
     25 C17        -3.6503   -0.6787    5.8503 C.2       1 <0>         0.5581
     26 O4         -4.5864   -0.8530    6.6100 O.2       1 <0>        -0.5001
     27 N4         -2.8395    0.3928    5.8289 N.am      1 <0>        -0.6502
     28 H2          1.0960    1.6162   -0.1238 H         1 <0>         0.0706
     29 H3         -0.3491    1.3565   -1.1300 H         1 <0>         0.0851
     30 H4         -0.5167    1.5762    0.6284 H         1 <0>         0.0603
     31 H5         -0.0728   -0.8989   -0.6574 H         1 <0>         0.4207
     32 H6          0.7986    1.4224    3.1167 H         1 <0>         0.1510
     33 H7         -0.6894    2.0612    4.9603 H         1 <0>         0.1408
     34 H8         -1.3442   -2.2271    2.5963 H         1 <0>         0.1476
     35 H9         -3.4156   -3.3554    3.5923 H         1 <0>         0.1603
     36 H10        -6.3095   -3.9989    8.1034 H         1 <0>         0.1841
     37 H11        -8.8281   -6.3673    4.4952 H         1 <0>         0.4021
     38 H12        -6.2518   -6.7369    3.8415 H         1 <0>         0.0652
     39 H13        -7.4531   -6.1785    2.6673 H         1 <0>         0.0878
     40 H14        -6.8647   -3.8833    3.0073 H         1 <0>         0.0881
     41 H15        -5.3262   -4.7729    2.8662 H         1 <0>         0.0954
     42 H16        -2.9193    1.1509    6.4287 H         1 <0>         0.4229
@<TRIPOS>BOND
     1    1    2 1
     2    1   28 1
     3    1   29 1
     4    1   30 1
     5    2    3 1
     6    2   31 1
     7    3    4 2
     8    3    5 2
     9    3    6 1
    10    6   11 ar
    11    6    7 ar
    12    7    8 ar
    13    7   32 1
    14    8    9 ar
    15    8   33 1
    16    9   27 1
    17    9   10 ar
    18   10   11 ar
    19   10   12 1
    20   11   34 1
    21   12   13 2
    22   12   25 1
    23   13   14 1
    24   13   35 1
    25   14   18 1
    26   14   15 2
    27   15   24 1
    28   15   16 1
    29   16   17 2
    30   16   20 1
    31   17   18 1
    32   17   36 1
    33   18   19 1
    34   20   21 2
    35   20   22 am
    36   22   23 1
    37   22   37 1
    38   23   24 1
    39   23   38 1
    40   23   39 1
    41   24   40 1
    42   24   41 1
    43   25   26 2
    44   25   27 am
    45   27   42 1
@<TRIPOS>MOLECULE
CHEMBL311851
   69    75     0     0     0
SMALL
USER_CHARGES

@<TRIPOS>ATOM
      1 C1         -0.0178    1.4613    0.0101 C.3       1 <0>         0.0579
      2 N1          0.0021   -0.0041    0.0020 N.pl3     1 <0>        -0.4417
      3 C2         -0.0218   -0.7478   -1.1468 C.2       1 <0>         0.0497
      4 C3         -0.1157   -2.0491   -0.8379 C.2       1 <0>        -0.1830
      5 C4         -0.1502   -2.1329    0.6212 C.ar      1 <0>        -0.1220
      6 C5          0.0236   -0.8228    1.0987 C.ar      1 <0>         0.1056
      7 C6          0.2017   -0.6463    2.4844 C.ar      1 <0>         0.0546
      8 C7         -0.2656   -1.6699    3.3593 C.ar      1 <0>        -0.0111
      9 C8         -0.4340   -2.9690    2.8515 C.ar      1 <0>        -0.1751
     10 C9         -0.3463   -3.1990    1.5163 C.ar      1 <0>        -0.0250
     11 C10        -0.5440   -1.3620    4.7084 C.ar      1 <0>         0.1641
     12 C11        -0.0298   -0.1628    5.2342 C.ar      1 <0>        -0.0386
     13 C12        -0.4096   -0.1228    6.6566 C.ar      1 <0>        -0.1276
     14 C13        -0.1752    0.7932    7.6807 C.ar      1 <0>        -0.0060
     15 C14        -0.6634    0.5387    8.9433 C.ar      1 <0>        -0.2212
     16 C15        -1.3859   -0.6247    9.1954 C.ar      1 <0>         0.1768
     17 C16        -1.6317   -1.5332    8.1787 C.ar      1 <0>        -0.1859
     18 C17        -1.1491   -1.2866    6.8993 C.ar      1 <0>         0.1652
     19 N2         -1.2496   -1.9881    5.7073 N.pl3     1 <0>        -0.4828
     20 C18        -2.0398   -3.2156    5.5713 C.3       1 <0>         0.0885
     21 C19        -1.1507   -4.4284    5.8538 C.3       1 <0>        -0.0467
     22 N3         -1.9424   -5.6583    5.7176 N.4       1 <0>        -0.5032
     23 C20        -1.0888   -6.8226    5.9888 C.3       1 <0>         0.0232
     24 C21        -0.0025   -6.9196    4.9158 C.3       1 <0>        -0.1397
     25 C22         0.8865   -8.1323    5.1982 C.3       1 <0>        -0.1135
     26 C23         0.0358   -9.4039    5.1791 C.3       1 <0>         0.0999
     27 C24        -1.0505   -9.3069    6.2522 C.3       1 <0>        -0.1528
     28 C25        -1.9395   -8.0942    5.9697 C.3       1 <0>        -0.1369
     29 O1          0.8662  -10.5366    5.4429 O.3       1 <0>        -0.5602
     30 O2         -1.8409   -0.8694   10.4508 O.3       1 <0>        -0.3128
     31 C26        -1.5406    0.1057   11.4513 C.3       1 <0>         0.0233
     32 C27         0.6913    0.7267    4.4236 C.ar      1 <0>        -0.0799
     33 C28         0.8613    0.4580    3.0563 C.ar      1 <0>        -0.1503
     34 C29         1.8402    1.4532    2.5917 C.2       1 <0>         0.5787
     35 O3          2.4288    1.4374    1.5291 O.2       1 <0>        -0.4512
     36 N4          2.0156    2.3762    3.5599 N.am      1 <0>        -0.6813
     37 C30         1.3563    2.0220    4.6756 C.2       1 <0>         0.5777
     38 O4          1.3097    2.6515    5.7141 O.2       1 <0>        -0.4513
     39 H1          1.0048    1.8386    0.0023 H         1 <0>         0.0916
     40 H2         -0.5450    1.8224   -0.8730 H         1 <0>         0.0946
     41 H3         -0.5280    1.8128    0.9069 H         1 <0>         0.0782
     42 H4          0.0227   -0.3458   -2.1469 H         1 <0>         0.1788
     43 H5         -0.1506   -2.8744   -1.5332 H         1 <0>         0.1560
     44 H6         -0.6107   -3.8094    3.5023 H         1 <0>         0.1134
     45 H7         -0.4311   -4.2062    1.1422 H         1 <0>         0.1308
     46 H8          0.3820    1.6976    7.4953 H         1 <0>         0.1501
     47 H9         -0.4778    1.2431    9.7409 H         1 <0>         0.1416
     48 H10        -2.1864   -2.4318    8.3996 H         1 <0>         0.1315
     49 H11        -2.8655   -3.1969    6.2827 H         1 <0>         0.1181
     50 H12        -2.4349   -3.2830    4.5577 H         1 <0>         0.1165
     51 H13        -0.3250   -4.4471    5.1425 H         1 <0>         0.1425
     52 H14        -0.7556   -4.3610    6.8674 H         1 <0>         0.1447
     53 H15        -2.7067   -5.6409    6.3761 H         1 <0>         0.4319
     54 H16        -0.6233   -6.7116    6.9681 H         1 <0>         0.1442
     55 H17        -0.4681   -7.0306    3.9365 H         1 <0>         0.0928
     56 H18         0.6035   -6.0137    4.9294 H         1 <0>         0.0942
     57 H19         1.6604   -8.2014    4.4338 H         1 <0>         0.0943
     58 H20         1.3521   -8.0213    6.1775 H         1 <0>         0.0833
     59 H21        -0.4297   -9.5149    4.1998 H         1 <0>         0.0622
     60 H22        -1.6565  -10.2128    6.2386 H         1 <0>         0.0892
     61 H23        -0.5849   -9.1959    7.2315 H         1 <0>         0.0845
     62 H24        -2.7134   -8.0251    6.7342 H         1 <0>         0.0935
     63 H25        -2.4051   -8.2052    4.9904 H         1 <0>         0.0910
     64 H26         0.3923  -11.3794    5.4462 H         1 <0>         0.3886
     65 H27        -0.4595    0.2079   11.5462 H         1 <0>         0.0626
     66 H28        -1.9724    1.0648   11.1651 H         1 <0>         0.0631
     67 H29        -1.9608   -0.2116   12.4057 H         1 <0>         0.1076
     68 H30         2.5465    3.1820    3.4659 H         1 <0>         0.4355
     69 H31        -2.3082   -5.7206    4.7793 H         1 <0>         0.4282
@<TRIPOS>BOND
     1    1    2 1
     2    1   39 1
     3    1   40 1
     4    1   41 1
     5    2    6 1
     6    2    3 1
     7    3    4 2
     8    3   42 1
     9    4    5 1
    10    4   43 1
    11    5   10 ar
    12    5    6 ar
    13    6    7 ar
    14    7   33 ar
    15    7    8 ar
    16    8    9 ar
    17    8   11 ar
    18    9   10 ar
    19    9   44 1
    20   10   45 1
    21   11   19 1
    22   11   12 ar
    23   12   13 1
    24   12   32 ar
    25   13   18 ar
    26   13   14 ar
    27   14   15 ar
    28   14   46 1
    29   15   16 ar
    30   15   47 1
    31   16   17 ar
    32   16   30 1
    33   17   18 ar
    34   17   48 1
    35   18   19 1
    36   19   20 1
    37   20   21 1
    38   20   49 1
    39   20   50 1
    40   21   22 1
    41   21   51 1
    42   21   52 1
    43   22   23 1
    44   22   53 1
    45   22   69 1
    46   23   28 1
    47   23   24 1
    48   23   54 1
    49   24   25 1
    50   24   55 1
    51   24   56 1
    52   25   26 1
    53   25   57 1
    54   25   58 1
    55   26   27 1
    56   26   29 1
    57   26   59 1
    58   27   28 1
    59   27   60 1
    60   27   61 1
    61   28   62 1
    62   28   63 1
    63   29   64 1
    64   30   31 1
    65   31   65 1
    66   31   66 1
    67   31   67 1
    68   32   37 1
    69   32   33 ar
    70   33   34 1
    71   34   35 2
    72   34   36 am
    73   36   37 am
    74   36   68 1
    75   37   38 2
@<TRIPOS>MOLECULE
CHEMBL232737
   51    54     0     0     0
SMALL
USER_CHARGES

@<TRIPOS>ATOM
      1 C1          0.3017    1.5054   -0.0263 C.3       1 <0>        -0.1180
      2 C2          0.3031   -0.0015   -0.0322 C.ar      1 <0>        -0.1051
      3 C3          0.0422   -0.6823   -1.2012 C.ar      1 <0>        -0.0166
      4 C4          0.0443   -2.0778   -1.2047 C.ar      1 <0>        -0.2103
      5 C5         -0.2304   -2.8390   -2.4386 C.2       1 <0>         0.3951
      6 O1         -0.4678   -2.2726   -3.4932 O.2       1 <0>        -0.4495
      7 C6         -0.2074   -4.2529   -2.3516 C.2       1 <0>        -0.0383
      8 C7          0.0649   -4.8486   -1.1432 C.2       1 <0>         0.1290
      9 O2          0.3117   -4.1356   -0.0319 O.3       1 <0>        -0.1949
     10 C8          0.3107   -2.7862   -0.0240 C.ar      1 <0>         0.1449
     11 C9          0.5726   -2.0798    1.1516 C.ar      1 <0>         0.1261
     12 C10         0.5725   -0.6954    1.1375 C.ar      1 <0>        -0.0536
     13 N1          0.8400   -2.7690    2.3390 N.pl3     1 <0>        -0.6664
     14 C11         2.2165   -3.1337    2.7083 C.3       1 <0>         0.1180
     15 C12         2.4715   -2.6734    4.1474 C.3       1 <0>        -0.0229
     16 N2          1.4390   -3.2324    5.0293 N.4       1 <0>        -0.3829
     17 C13         0.1241   -2.6881    4.6675 C.3       1 <0>        -0.0225
     18 C14        -0.2466   -3.1442    3.2569 C.3       1 <0>         0.1171
     19 C15         1.7455   -2.8820    6.4225 C.3       1 <0>        -0.0469
     20 C16         0.0862   -6.3206   -1.0641 C.ar      1 <0>        -0.0446
     21 C17         0.7910   -7.0633   -2.0157 C.ar      1 <0>        -0.0563
     22 C18         0.8097   -8.4394   -1.9398 C.ar      1 <0>        -0.1305
     23 C19         0.1299   -9.0909   -0.9201 C.ar      1 <0>         0.1071
     24 C20        -0.5754   -8.3569    0.0320 C.ar      1 <0>         0.0755
     25 C21        -0.5936   -6.9769   -0.0338 C.ar      1 <0>        -0.0980
     26 O3         -1.2406   -8.9988    1.0294 O.3       1 <0>        -0.4818
     27 O4          0.1516  -10.4476   -0.8501 O.3       1 <0>        -0.4836
     28 O5         -0.4528   -5.0134   -3.4530 O.3       1 <0>        -0.4466
     29 H1          1.3031    1.8706   -0.2545 H         1 <0>         0.0789
     30 H2         -0.3983    1.8711   -0.7776 H         1 <0>         0.0765
     31 H3         -0.0006    1.8647    0.9574 H         1 <0>         0.0717
     32 H4         -0.1635   -0.1381   -2.1111 H         1 <0>         0.1492
     33 H5          0.7800   -0.1509    2.0469 H         1 <0>         0.1395
     34 H6          2.3391   -4.2148    2.6424 H         1 <0>         0.0815
     35 H7          2.9189   -2.6408    2.0362 H         1 <0>         0.1163
     36 H8          3.4528   -3.0201    4.4714 H         1 <0>         0.1380
     37 H9          2.4373   -1.5849    4.1922 H         1 <0>         0.1308
     38 H10        -0.6243   -3.0455    5.3748 H         1 <0>         0.1385
     39 H11         0.1610   -1.5991    4.6966 H         1 <0>         0.1307
     40 H12        -1.1718   -2.6581    2.9474 H         1 <0>         0.1166
     41 H13        -0.3769   -4.2263    3.2474 H         1 <0>         0.0808
     42 H14         1.7663   -1.7974    6.5283 H         1 <0>         0.1211
     43 H15         0.9798   -3.2964    7.0783 H         1 <0>         0.1243
     44 H16         2.7179   -3.2923    6.6949 H         1 <0>         0.1242
     45 H17         1.3206   -6.5590   -2.8104 H         1 <0>         0.1406
     46 H18         1.3543   -9.0121   -2.6759 H         1 <0>         0.1453
     47 H19        -1.1357   -6.4068    0.7061 H         1 <0>         0.1351
     48 H20        -0.7101   -9.1468    1.8243 H         1 <0>         0.3869
     49 H21         0.8809  -10.8027   -0.3237 H         1 <0>         0.3937
     50 H22        -0.6336   -4.5006   -4.2527 H         1 <0>         0.4118
     51 H23         1.4240   -4.2367    4.9331 H         1 <0>         0.4244
@<TRIPOS>BOND
     1    1    2 1
     2    1   29 1
     3    1   30 1
     4    1   31 1
     5    2   12 ar
     6    2    3 ar
     7    3    4 ar
     8    3   32 1
     9    4   10 ar
    10    4    5 1
    11    5    6 2
    12    5    7 1
    13    7    8 2
    14    7   28 1
    15    8    9 1
    16    8   20 1
    17    9   10 1
    18   10   11 ar
    19   11   12 ar
    20   11   13 1
    21   12   33 1
    22   13   18 1
    23   13   14 1
    24   14   15 1
    25   14   34 1
    26   14   35 1
    27   15   16 1
    28   15   36 1
    29   15   37 1
    30   16   17 1
    31   16   19 1
    32   16   51 1
    33   17   18 1
    34   17   38 1
    35   17   39 1
    36   18   40 1
    37   18   41 1
    38   19   42 1
    39   19   43 1
    40   19   44 1
    41   20   25 ar
    42   20   21 ar
    43   21   22 ar
    44   21   45 1
    45   22   23 ar
    46   22   46 1
    47   23   24 ar
    48   23   27 1
    49   24   25 ar
    50   24   26 1
    51   25   47 1
    52   26   48 1
    53   27   49 1
    54   28   50 1
@<TRIPOS>MOLECULE
CHEMBL335275
   43    46     0     0     0
SMALL
USER_CHARGES

@<TRIPOS>ATOM
      1 C1         -0.0184    1.5028    0.0103 C.3       1 <0>        -0.1760
      2 C2          0.0021   -0.0041    0.0020 C.2       1 <0>         0.3899
      3 N1          0.0218   -0.6649    1.1324 N.2       1 <0>        -0.5298
      4 C3          0.0238    0.0128    2.3210 C.ar      1 <0>         0.1858
      5 C4          0.8605    1.1174    2.4976 C.ar      1 <0>        -0.1930
      6 C5          0.8570    1.7961    3.6983 C.ar      1 <0>        -0.0060
      7 C6          0.0276    1.3849    4.7268 C.ar      1 <0>        -0.7116
      8 C7         -0.8038    0.2915    4.5590 C.ar      1 <0>        -0.0021
      9 C8         -0.8150   -0.3931    3.3616 C.ar      1 <0>        -0.1469
     10 S1          0.0306    2.2572    6.2577 S.o2      1 <0>         2.7052
     11 O1         -0.4328    1.3464    7.2451 O.2       1 <0>        -0.9708
     12 O2          1.2907    2.9072    6.3523 O.2       1 <0>        -0.9696
     13 N2         -1.1106    3.4517    6.1428 N.pl3     1 <0>        -1.2507
     14 C9         -0.0000   -0.7056   -1.2284 C.2       1 <0>        -0.4097
     15 C10         1.1795   -1.1335   -2.0063 C.ar      1 <0>        -0.0049
     16 C11         2.5510   -1.0065   -1.8167 C.ar      1 <0>        -0.0927
     17 C12         3.4267   -1.5333   -2.7617 C.ar      1 <0>        -0.0540
     18 C13         2.9236   -2.1857   -3.8932 C.ar      1 <0>        -0.1202
     19 C14         1.5667   -2.3108   -4.0807 C.ar      1 <0>        -0.1201
     20 C15         0.6797   -1.7890   -3.1433 C.ar      1 <0>         0.0903
     21 N3         -0.7019   -1.7666   -3.0716 N.pl3     1 <0>        -0.6243
     22 H1         -1.2961   -2.1528   -3.7339 H         1 <0>         0.3996
     23 C16        -1.1100   -1.1331   -1.9403 C.2       1 <0>         0.4757
     24 O3         -2.3967   -0.9468   -1.5690 O.3       1 <0>        -0.6955
     25 C17         4.8870   -1.4036   -2.5706 C.2       1 <0>         0.0408
     26 C18         5.8559   -1.8598   -3.4051 C.2       1 <0>        -0.0555
     27 N4          7.0402   -1.5362   -2.8639 N.2       1 <0>        -0.4854
     28 C19         6.8336   -0.9060   -1.7418 C.2       1 <0>         0.1475
     29 O4          5.5133   -0.8032   -1.5349 O.3       1 <0>        -0.2012
     30 H2          1.0042    1.8801    0.0026 H         1 <0>         0.0824
     31 H3         -0.5455    1.8639   -0.8728 H         1 <0>         0.0807
     32 H4         -0.5286    1.8543    0.9071 H         1 <0>         0.0684
     33 H5          1.5088    1.4389    1.6959 H         1 <0>         0.1343
     34 H6          1.5033    2.6502    3.8362 H         1 <0>         0.1370
     35 H7         -1.4483   -0.0241    5.3661 H         1 <0>         0.1390
     36 H8         -1.4676   -1.2436    3.2304 H         1 <0>         0.1351
     37 H9         -1.5790    3.7530    6.9370 H         1 <0>         0.4179
     38 H10        -1.3106    3.8501    5.2813 H         1 <0>         0.4171
     39 H11         2.9344   -0.5020   -0.9421 H         1 <0>         0.1110
     40 H12         3.6057   -2.5934   -4.6246 H         1 <0>         0.1186
     41 H13         1.1885   -2.8157   -4.9574 H         1 <0>         0.1163
     42 H14         5.7015   -2.3875   -4.3346 H         1 <0>         0.1823
     43 H15         7.6025   -0.5243   -1.0865 H         1 <0>         0.2451
@<TRIPOS>BOND
     1    1    2 1
     2    1   30 1
     3    1   31 1
     4    1   32 1
     5    2    3 2
     6    2   14 1
     7    3    4 1
     8    4    9 ar
     9    4    5 ar
    10    5    6 ar
    11    5   33 1
    12    6    7 ar
    13    6   34 1
    14    7    8 ar
    15    7   10 1
    16    8    9 ar
    17    8   35 1
    18    9   36 1
    19   10   11 2
    20   10   12 2
    21   10   13 1
    22   13   37 1
    23   13   38 1
    24   14   23 2
    25   14   15 1
    26   15   20 ar
    27   15   16 ar
    28   16   17 ar
    29   16   39 1
    30   17   18 ar
    31   17   25 1
    32   18   19 ar
    33   18   40 1
    34   19   20 ar
    35   19   41 1
    36   20   21 1
    37   21   22 1
    38   21   23 1
    39   23   24 1
    40   25   29 1
    41   25   26 2
    42   26   27 1
    43   26   42 1
    44   27   28 2
    45   28   29 1
    46   28   43 1
@<TRIPOS>MOLECULE
CHEMBL335275
   44    47     0     0     0
SMALL
USER_CHARGES

@<TRIPOS>ATOM
      1 C1          0.4341    1.4123   -0.0178 C.3       1 <0>        -0.1143
      2 C2         -0.1012    0.0040    0.0172 C.2       1 <0>         0.2943
      3 N1         -0.2753   -0.6020    1.1649 N.2       1 <0>        -0.4852
      4 C3         -0.6750   -1.9102    1.1941 C.ar      1 <0>         0.1665
      5 C4          0.1189   -2.8996    0.6094 C.ar      1 <0>        -0.1577
      6 C5         -0.2900   -4.2165    0.6430 C.ar      1 <0>        -0.0022
      7 C6         -1.4838   -4.5583    1.2537 C.ar      1 <0>        -0.6938
      8 C7         -2.2752   -3.5834    1.8349 C.ar      1 <0>        -0.0028
      9 C8         -1.8760   -2.2633    1.8139 C.ar      1 <0>        -0.1377
     10 S1         -1.9987   -6.2430    1.2908 S.o2      1 <0>         2.7013
     11 O1         -3.4118   -6.2325    1.4400 O.2       1 <0>        -0.9655
     12 O2         -1.3523   -6.8893    0.2028 O.2       1 <0>        -0.9655
     13 N2         -1.3818   -6.9132    2.6737 N.pl3     1 <0>        -1.2503
     14 C9         -0.4161   -0.6641   -1.1913 C.2       1 <0>        -0.2323
     15 C10         0.5338   -1.3006   -2.1252 C.ar      1 <0>        -0.0592
     16 C11         1.9165   -1.4454   -2.1363 C.ar      1 <0>        -0.0581
     17 C12         2.5284   -2.1173   -3.1907 C.ar      1 <0>        -0.0257
     18 C13         1.7511   -2.6414   -4.2299 C.ar      1 <0>        -0.0748
     19 C14         0.3832   -2.4977   -4.2190 C.ar      1 <0>        -0.1087
     20 C15        -0.2417   -1.8284   -3.1704 C.ar      1 <0>         0.1120
     21 N3         -1.5677   -1.5393   -2.9012 N.pl3     1 <0>        -0.5837
     22 H1         -2.3144   -1.7921   -3.4664 H         1 <0>         0.4216
     23 C16        -1.6783   -0.8566   -1.7310 C.2       1 <0>         0.3109
     24 O3         -2.8375   -0.4298   -1.1811 O.3       1 <0>        -0.4568
     25 C17         3.9980   -2.2767   -3.2130 C.2       1 <0>         0.0017
     26 C18         4.7299   -2.8991   -4.1723 C.2       1 <0>        -0.0225
     27 N4          6.0196   -2.8203   -3.8110 N.2       1 <0>        -0.4846
     28 C19         6.1025   -2.1799   -2.6788 C.2       1 <0>         0.1755
     29 O4          4.8710   -1.8259   -2.2856 O.3       1 <0>        -0.2001
     30 H2          1.5224    1.3860   -0.0739 H         1 <0>         0.0915
     31 H3          0.0377    1.9301   -0.8912 H         1 <0>         0.0812
     32 H4          0.1295    1.9393    0.8864 H         1 <0>         0.0867
     33 H5          1.0505   -2.6341    0.1318 H         1 <0>         0.1302
     34 H6          0.3227   -4.9826    0.1913 H         1 <0>         0.1413
     35 H7         -3.2059   -3.8573    2.3095 H         1 <0>         0.1445
     36 H8         -2.4925   -1.5040    2.2718 H         1 <0>         0.1357
     37 H9         -0.8472   -6.3740    3.2773 H         1 <0>         0.4171
     38 H10        -1.5549   -7.8451    2.8801 H         1 <0>         0.4208
     39 H11         2.5121   -1.0389   -1.3323 H         1 <0>         0.1308
     40 H12         2.2289   -3.1622   -5.0466 H         1 <0>         0.1392
     41 H13        -0.2077   -2.9055   -5.0258 H         1 <0>         0.1354
     42 H14        -3.1028    0.4569   -1.4612 H         1 <0>         0.4041
     43 H15         4.3442   -3.3719   -5.0634 H         1 <0>         0.1866
     44 H16         7.0168   -1.9652   -2.1455 H         1 <0>         0.2523
@<TRIPOS>BOND
     1    1    2 1
     2    1   30 1
     3    1   31 1
     4    1   32 1
     5    2    3 2
     6    2   14 1
     7    3    4 1
     8    4    9 ar
     9    4    5 ar
    10    5    6 ar
    11    5   33 1
    12    6    7 ar
    13    6   34 1
    14    7    8 ar
    15    7   10 1
    16    8    9 ar
    17    8   35 1
    18    9   36 1
    19   10   11 2
    20   10   12 2
    21   10   13 1
    22   13   37 1
    23   13   38 1
    24   14   23 2
    25   14   15 1
    26   15   20 ar
    27   15   16 ar
    28   16   17 ar
    29   16   39 1
    30   17   18 ar
    31   17   25 1
    32   18   19 ar
    33   18   40 1
    34   19   20 ar
    35   19   41 1
    36   20   21 1
    37   21   22 1
    38   21   23 1
    39   23   24 1
    40   24   42 1
    41   25   29 1
    42   25   26 2
    43   26   27 1
    44   26   43 1
    45   27   28 2
    46   28   29 1
    47   28   44 1
@<TRIPOS>MOLECULE
CHEMBL335275
   44    47     0     0     0
SMALL
USER_CHARGES

@<TRIPOS>ATOM
      1 C1         -0.0184    1.5028    0.0103 C.3       1 <0>        -0.1732
      2 C2          0.0021   -0.0041    0.0020 C.2       1 <0>         0.2910
      3 N1          0.0218   -0.6649    1.1324 N.2       1 <0>        -0.4770
      4 C3          0.0238    0.0128    2.3210 C.ar      1 <0>         0.1498
      5 C4          0.8605    1.1174    2.4976 C.ar      1 <0>        -0.1769
      6 C5          0.8570    1.7961    3.6983 C.ar      1 <0>        -0.0037
      7 C6          0.0276    1.3849    4.7268 C.ar      1 <0>        -0.6885
      8 C7         -0.8038    0.2915    4.5590 C.ar      1 <0>        -0.0043
      9 C8         -0.8150   -0.3931    3.3616 C.ar      1 <0>        -0.1284
     10 S1          0.0306    2.2572    6.2577 S.o2      1 <0>         2.7021
     11 O1         -0.4328    1.3464    7.2451 O.2       1 <0>        -0.9626
     12 O2          1.2907    2.9072    6.3523 O.2       1 <0>        -0.9633
     13 N2         -1.1106    3.4517    6.1428 N.pl3     1 <0>        -1.2502
     14 C9         -0.0000   -0.7056   -1.2284 C.2       1 <0>        -0.1727
     15 C10         1.1795   -1.1335   -2.0063 C.ar      1 <0>        -0.0604
     16 C11         2.5510   -1.0065   -1.8167 C.ar      1 <0>        -0.0501
     17 C12         3.4267   -1.5333   -2.7617 C.ar      1 <0>        -0.0295
     18 C13         2.9236   -2.1857   -3.8932 C.ar      1 <0>        -0.0742
     19 C14         1.5667   -2.3108   -4.0807 C.ar      1 <0>        -0.1114
     20 C15         0.6797   -1.7890   -3.1433 C.ar      1 <0>         0.1121
     21 N3         -0.7019   -1.7666   -3.0716 N.pl3     1 <0>        -0.5852
     22 H1         -1.2961   -2.1528   -3.7339 H         1 <0>         0.4217
     23 C16        -1.1100   -1.1331   -1.9403 C.2       1 <0>         0.3085
     24 O3         -2.3967   -0.9468   -1.5690 O.3       1 <0>        -0.4563
     25 C17         4.8870   -1.4036   -2.5706 C.2       1 <0>         0.0028
     26 C18         5.8559   -1.8598   -3.4051 C.2       1 <0>        -0.0241
     27 N4          7.0402   -1.5362   -2.8639 N.2       1 <0>        -0.4849
     28 C19         6.8336   -0.9060   -1.7418 C.2       1 <0>         0.1751
     29 O4          5.5133   -0.8032   -1.5349 O.3       1 <0>        -0.2001
     30 H2          1.0042    1.8801    0.0026 H         1 <0>         0.0939
     31 H3         -0.5455    1.8639   -0.8728 H         1 <0>         0.0819
     32 H4         -0.5286    1.8543    0.9071 H         1 <0>         0.0837
     33 H5          1.5088    1.4389    1.6959 H         1 <0>         0.1383
     34 H6          1.5033    2.6502    3.8362 H         1 <0>         0.1458
     35 H7         -1.4483   -0.0241    5.3661 H         1 <0>         0.1481
     36 H8         -1.4676   -1.2436    3.2304 H         1 <0>         0.1403
     37 H9         -1.6255    3.5537    5.3271 H         1 <0>         0.4163
     38 H10        -1.2641    4.0494    6.8912 H         1 <0>         0.4213
     39 H11         2.9344   -0.5020   -0.9421 H         1 <0>         0.1289
     40 H12         3.6057   -2.5934   -4.6246 H         1 <0>         0.1388
     41 H13         1.1885   -2.8157   -4.9574 H         1 <0>         0.1353
     42 H14        -2.7861   -0.1252   -1.8984 H         1 <0>         0.4023
     43 H15         5.7015   -2.3875   -4.3346 H         1 <0>         0.1867
     44 H16         7.6025   -0.5243   -1.0865 H         1 <0>         0.2522
@<TRIPOS>BOND
     1    1    2 1
     2    1   30 1
     3    1   31 1
     4    1   32 1
     5    2    3 2
     6    2   14 1
     7    3    4 1
     8    4    9 ar
     9    4    5 ar
    10    5    6 ar
    11    5   33 1
    12    6    7 ar
    13    6   34 1
    14    7    8 ar
    15    7   10 1
    16    8    9 ar
    17    8   35 1
    18    9   36 1
    19   10   11 2
    20   10   12 2
    21   10   13 1
    22   13   37 1
    23   13   38 1
    24   14   23 2
    25   14   15 1
    26   15   20 ar
    27   15   16 ar
    28   16   17 ar
    29   16   39 1
    30   17   18 ar
    31   17   25 1
    32   18   19 ar
    33   18   40 1
    34   19   20 ar
    35   19   41 1
    36   20   21 1
    37   21   22 1
    38   21   23 1
    39   23   24 1
    40   24   42 1
    41   25   29 1
    42   25   26 2
    43   26   27 1
    44   26   43 1
    45   27   28 2
    46   28   29 1
    47   28   44 1
@<TRIPOS>MOLECULE
CHEMBL335275
   43    46     0     0     0
SMALL
USER_CHARGES

@<TRIPOS>ATOM
      1 C1          0.4344    1.4122   -0.0178 C.3       1 <0>        -0.1123
      2 C2         -0.1011    0.0040    0.0171 C.2       1 <0>         0.3711
      3 N1         -0.2754   -0.6020    1.1649 N.2       1 <0>        -0.5498
      4 C3         -0.6751   -1.9101    1.1941 C.ar      1 <0>         0.2164
      5 C4          0.1188   -2.8996    0.6093 C.ar      1 <0>        -0.1544
      6 C5         -0.2902   -4.2165    0.6429 C.ar      1 <0>        -0.0108
      7 C6         -1.4839   -4.5583    1.2536 C.ar      1 <0>        -0.7101
      8 C7         -2.2754   -3.5833    1.8348 C.ar      1 <0>        -0.0050
      9 C8         -1.8761   -2.2632    1.8138 C.ar      1 <0>        -0.1454
     10 S1         -1.9989   -6.2429    1.2906 S.o2      1 <0>         2.7024
     11 O1         -3.4121   -6.2324    1.4398 O.2       1 <0>        -0.9724
     12 O2         -1.3525   -6.8893    0.2027 O.2       1 <0>        -0.9698
     13 N2         -1.3820   -6.9132    2.6736 N.pl3     1 <0>        -1.2516
     14 C9         -0.4160   -0.6641   -1.1913 C.2       1 <0>        -0.4597
     15 C10         0.5338   -1.3007   -2.1253 C.ar      1 <0>        -0.0041
     16 C11         1.9165   -1.4456   -2.1363 C.ar      1 <0>        -0.0998
     17 C12         2.5283   -2.1175   -3.1906 C.ar      1 <0>        -0.0526
     18 C13         1.7510   -2.6415   -4.2300 C.ar      1 <0>        -0.1191
     19 C14         0.3832   -2.4977   -4.2190 C.ar      1 <0>        -0.1198
     20 C15        -0.2417   -1.8283   -3.1705 C.ar      1 <0>         0.0927
     21 N3         -1.5677   -1.5391   -2.9013 N.pl3     1 <0>        -0.6253
     22 H1         -2.3144   -1.7918   -3.4665 H         1 <0>         0.3987
     23 C16        -1.6783   -0.8564   -1.7311 C.2       1 <0>         0.4764
     24 O3         -2.8374   -0.4295   -1.1812 O.3       1 <0>        -0.6911
     25 C17         3.9980   -2.2771   -3.2129 C.2       1 <0>         0.0409
     26 C18         4.7298   -2.8995   -4.1722 C.2       1 <0>        -0.0549
     27 N4          6.0195   -2.8208   -3.8109 N.2       1 <0>        -0.4849
     28 C19         6.1025   -2.1804   -2.6787 C.2       1 <0>         0.1469
     29 O4          4.8710   -1.8263   -2.2855 O.3       1 <0>        -0.2015
     30 H2          1.5227    1.3858   -0.0738 H         1 <0>         0.0777
     31 H3          0.0381    1.9301   -0.8912 H         1 <0>         0.0765
     32 H4          0.1299    1.9393    0.8864 H         1 <0>         0.0702
     33 H5          1.0504   -2.6341    0.1318 H         1 <0>         0.1265
     34 H6          0.3226   -4.9826    0.1912 H         1 <0>         0.1318
     35 H7         -3.2061   -3.8572    2.3094 H         1 <0>         0.1337
     36 H8         -2.4926   -1.5039    2.2717 H         1 <0>         0.1270
     37 H9         -1.8552   -7.6357    3.1152 H         1 <0>         0.4163
     38 H10        -0.5476   -6.5833    3.0420 H         1 <0>         0.4160
     39 H11         2.5121   -1.0391   -1.3322 H         1 <0>         0.1121
     40 H12         2.2288   -3.1624   -5.0466 H         1 <0>         0.1185
     41 H13        -0.2077   -2.9054   -5.0259 H         1 <0>         0.1157
     42 H14         4.3441   -3.3723   -5.0633 H         1 <0>         0.1820
     43 H15         7.0168   -1.9658   -2.1454 H         1 <0>         0.2449
@<TRIPOS>BOND
     1    1    2 1
     2    1   30 1
     3    1   31 1
     4    1   32 1
     5    2    3 2
     6    2   14 1
     7    3    4 1
     8    4    9 ar
     9    4    5 ar
    10    5    6 ar
    11    5   33 1
    12    6    7 ar
    13    6   34 1
    14    7    8 ar
    15    7   10 1
    16    8    9 ar
    17    8   35 1
    18    9   36 1
    19   10   11 2
    20   10   12 2
    21   10   13 1
    22   13   37 1
    23   13   38 1
    24   14   23 2
    25   14   15 1
    26   15   20 ar
    27   15   16 ar
    28   16   17 ar
    29   16   39 1
    30   17   18 ar
    31   17   25 1
    32   18   19 ar
    33   18   40 1
    34   19   20 ar
    35   19   41 1
    36   20   21 1
    37   21   22 1
    38   21   23 1
    39   23   24 1
    40   25   29 1
    41   25   26 2
    42   26   27 1
    43   26   42 1
    44   27   28 2
    45   28   29 1
    46   28   43 1
@<TRIPOS>MOLECULE
CHEMBL373300
   58    62     0     0     0
SMALL
USER_CHARGES

@<TRIPOS>ATOM
      1 C1         -0.0114    1.4551    0.0766 C.2       1 <0>         0.0030
      2 C2          1.1769    2.1141    0.0717 C.2       1 <0>        -0.2222
      3 C3          2.3875    1.3926    0.0430 C.2       1 <0>         0.5408
      4 O1          3.4418    2.0041    0.0391 O.2       1 <0>        -0.5094
      5 N1          2.4112    0.0482    0.0202 N.am      1 <0>        -0.5024
      6 C4          1.2480   -0.6775    0.0236 C.ar      1 <0>         0.4566
      7 C5          0.0068   -0.0044    0.0515 C.ar      1 <0>        -0.2745
      8 C6         -1.1704   -0.7610    0.0541 C.ar      1 <0>         0.2460
      9 N2         -1.0714   -2.0781    0.0299 N.ar      1 <0>        -0.5189
     10 C7          0.1132   -2.6787    0.0036 C.ar      1 <0>         0.5923
     11 N3          1.2533   -2.0041    0.0009 N.ar      1 <0>        -0.5902
     12 N4          0.1578   -4.0598   -0.0210 N.pl3     1 <0>        -0.6149
     13 C8         -1.0205   -4.7978    0.0905 C.ar      1 <0>         0.3426
     14 C9         -0.9579   -6.1846    0.1725 C.ar      1 <0>        -0.1577
     15 C10        -2.1318   -6.9071    0.2833 C.ar      1 <0>        -0.1070
     16 C11        -3.3397   -6.2114    0.3084 C.ar      1 <0>         0.1087
     17 C12        -3.3247   -4.8274    0.2221 C.ar      1 <0>         0.0800
     18 N5         -2.1849   -4.1700    0.1224 N.ar      1 <0>        -0.4221
     19 N6         -4.5526   -6.9014    0.4188 N.pl3     1 <0>        -0.6413
     20 C13        -4.5783   -8.3555    0.6402 C.3       1 <0>         0.0993
     21 C14        -5.5072   -8.6506    1.8225 C.3       1 <0>        -0.0233
     22 N7         -6.8243   -8.0527    1.5700 N.4       1 <0>        -0.5039
     23 C15        -6.7073   -6.5900    1.5149 C.3       1 <0>        -0.0236
     24 C16        -5.8378   -6.1921    0.3229 C.3       1 <0>         0.0987
     25 C17         3.6983   -0.6509   -0.0092 C.3       1 <0>         0.1346
     26 C18         4.5079   -0.2814    1.2353 C.3       1 <0>        -0.1343
     27 C19         5.8521   -1.0115    1.2046 C.3       1 <0>        -0.1119
     28 C20         6.6273   -0.6003   -0.0487 C.3       1 <0>        -0.1234
     29 C21         5.8177   -0.9698   -1.2933 C.3       1 <0>        -0.1120
     30 C22         4.4735   -0.2397   -1.2626 C.3       1 <0>        -0.1346
     31 H1         -0.9452    1.9970    0.1030 H         1 <0>         0.1530
     32 H2          1.1938    3.1938    0.0895 H         1 <0>         0.1610
     33 H3         -2.1369   -0.2795    0.0758 H         1 <0>         0.1842
     34 H4          1.0086   -4.5159   -0.1157 H         1 <0>         0.4347
     35 H5         -0.0043   -6.6910    0.1497 H         1 <0>         0.1430
     36 H6         -2.1133   -7.9850    0.3484 H         1 <0>         0.1391
     37 H7         -4.2562   -4.2812    0.2405 H         1 <0>         0.1559
     38 H8         -4.9524   -8.8555   -0.2532 H         1 <0>         0.0891
     39 H9         -3.5726   -8.7092    0.8674 H         1 <0>         0.1240
     40 H10        -5.6141   -9.7289    1.9405 H         1 <0>         0.1437
     41 H11        -5.0835   -8.2255    2.7324 H         1 <0>         0.1343
     42 H12        -7.1840   -8.3934    0.6910 H         1 <0>         0.4287
     43 H13        -7.6986   -6.1500    1.4062 H         1 <0>         0.1451
     44 H14        -6.2474   -6.2273    2.4341 H         1 <0>         0.1347
     45 H15        -5.6645   -5.1161    0.3405 H         1 <0>         0.1270
     46 H16        -6.3413   -6.4698   -0.6030 H         1 <0>         0.0899
     47 H17         3.5269   -1.7272   -0.0249 H         1 <0>         0.1107
     48 H18         4.6793    0.7949    1.2509 H         1 <0>         0.0902
     49 H19         3.9556   -0.5744    2.1282 H         1 <0>         0.0591
     50 H20         6.4289   -0.7482    2.0913 H         1 <0>         0.0688
     51 H21         5.6807   -2.0878    1.1890 H         1 <0>         0.0616
     52 H22         6.7987    0.4761   -0.0331 H         1 <0>         0.0674
     53 H23         7.5849   -1.1204   -0.0706 H         1 <0>         0.0658
     54 H24         6.3700   -0.6768   -2.1862 H         1 <0>         0.0690
     55 H25         5.6463   -2.0461   -1.3089 H         1 <0>         0.0618
     56 H26         3.8967   -0.5029   -2.1492 H         1 <0>         0.0596
     57 H27         4.6449    0.8367   -1.2469 H         1 <0>         0.0902
     58 H28        -7.4573   -8.3105    2.3122 H         1 <0>         0.4339
@<TRIPOS>BOND
     1    1    7 1
     2    1    2 2
     3    1   31 1
     4    2    3 1
     5    2   32 1
     6    3    4 2
     7    3    5 am
     8    5    6 1
     9    5   25 1
    10    6   11 ar
    11    6    7 ar
    12    7    8 ar
    13    8    9 ar
    14    8   33 1
    15    9   10 ar
    16   10   11 ar
    17   10   12 1
    18   12   13 1
    19   12   34 1
    20   13   18 ar
    21   13   14 ar
    22   14   15 ar
    23   14   35 1
    24   15   16 ar
    25   15   36 1
    26   16   17 ar
    27   16   19 1
    28   17   18 ar
    29   17   37 1
    30   19   24 1
    31   19   20 1
    32   20   21 1
    33   20   38 1
    34   20   39 1
    35   21   22 1
    36   21   40 1
    37   21   41 1
    38   22   23 1
    39   22   42 1
    40   22   58 1
    41   23   24 1
    42   23   43 1
    43   23   44 1
    44   24   45 1
    45   24   46 1
    46   25   30 1
    47   25   26 1
    48   25   47 1
    49   26   27 1
    50   26   48 1
    51   26   49 1
    52   27   28 1
    53   27   50 1
    54   27   51 1
    55   28   29 1
    56   28   52 1
    57   28   53 1
    58   29   30 1
    59   29   54 1
    60   29   55 1
    61   30   56 1
    62   30   57 1
@<TRIPOS>MOLECULE
CHEMBL183941
   41    44     0     0     0
SMALL
USER_CHARGES

@<TRIPOS>ATOM
      1 C1          3.7000    1.4042    3.6709 C.ar      1 <0>        -0.0230
      2 C2          3.6854    2.1126    2.4831 C.ar      1 <0>        -0.1789
      3 C3          3.6854    1.4423    1.2742 C.ar      1 <0>         0.1893
      4 C4          3.7006    0.0443    1.2545 C.ar      1 <0>        -0.2494
      5 C5          3.7157   -0.6643    2.4599 C.ar      1 <0>         0.1843
      6 C6          3.7151    0.0213    3.6601 C.ar      1 <0>        -0.1797
      7 F1          3.7300   -2.0152    2.4514 F         1 <0>        -0.1114
      8 C7          3.7002   -0.6806   -0.0334 C.2       1 <0>         0.4892
      9 O1          3.5871   -0.0646   -1.0797 O.2       1 <0>        -0.4096
     10 C8          3.8304   -2.0834   -0.0523 C.2       1 <0>        -0.2413
     11 C9          2.7963   -3.0217   -0.1099 C.2       1 <0>         0.4219
     12 N1          3.3419   -4.2333   -0.1094 N.2       1 <0>        -0.5239
     13 C10         4.6684   -4.1351   -0.0548 C.2       1 <0>         0.2961
     14 N2          5.0125   -2.8119   -0.0236 N.pl3     1 <0>        -0.3187
     15 C11         6.3059   -2.4324    0.0279 C.2       1 <0>         0.1500
     16 C12         7.3114   -3.3770    0.0464 C.2       1 <0>        -0.1928
     17 C13         6.9800   -4.7525    0.0114 C.2       1 <0>        -0.0489
     18 C14         5.6732   -5.1227   -0.0313 C.2       1 <0>        -0.0942
     19 C15         8.7239   -2.9556    0.1018 C.2       1 <0>         0.4624
     20 O2          9.0094   -1.7752    0.0363 O.2       1 <0>        -0.4193
     21 C16         9.7906   -3.9662    0.2367 C.ar      1 <0>        -0.1760
     22 C17        10.4453   -4.4546   -0.9001 C.ar      1 <0>         0.1468
     23 C18        11.4432   -5.4012   -0.7642 C.ar      1 <0>        -0.1464
     24 C19        11.7947   -5.8652    0.4905 C.ar      1 <0>        -0.0576
     25 C20        11.1520   -5.3870    1.6187 C.ar      1 <0>        -0.1179
     26 C21        10.1571   -4.4372    1.5014 C.ar      1 <0>         0.0183
     27 Cl1         9.3583   -3.8339    2.9197 Cl        1 <0>        -0.0388
     28 F2         10.1025   -4.0025   -2.1262 F         1 <0>        -0.1209
     29 N3          1.4406   -2.7384   -0.1586 N.pl3     1 <0>        -0.8290
     30 F3          3.6703    2.1360    0.1150 F         1 <0>        -0.1067
     31 H1          3.7041    1.9340    4.6121 H         1 <0>         0.1529
     32 H2          3.6737    3.1924    2.5001 H         1 <0>         0.1532
     33 H3          3.7268   -0.5245    4.5920 H         1 <0>         0.1510
     34 H4          6.5560   -1.3822    0.0546 H         1 <0>         0.1731
     35 H5          7.7583   -5.5011    0.0251 H         1 <0>         0.1503
     36 H6          5.4064   -6.1689   -0.0603 H         1 <0>         0.1650
     37 H7         11.9494   -5.7798   -1.6398 H         1 <0>         0.1524
     38 H8         12.5750   -6.6051    0.5901 H         1 <0>         0.1516
     39 H9         11.4327   -5.7547    2.5946 H         1 <0>         0.1505
     40 H10         1.1394   -1.8189   -0.2276 H         1 <0>         0.4116
     41 H11         0.7929   -3.4596   -0.1236 H         1 <0>         0.4145
@<TRIPOS>BOND
     1    1    6 ar
     2    1    2 ar
     3    1   31 1
     4    2    3 ar
     5    2   32 1
     6    3    4 ar
     7    3   30 1
     8    4    5 ar
     9    4    8 1
    10    5    6 ar
    11    5    7 1
    12    6   33 1
    13    8    9 2
    14    8   10 1
    15   10   14 1
    16   10   11 2
    17   11   12 1
    18   11   29 1
    19   12   13 2
    20   13   18 1
    21   13   14 1
    22   14   15 1
    23   15   16 2
    24   15   34 1
    25   16   17 1
    26   16   19 1
    27   17   18 2
    28   17   35 1
    29   18   36 1
    30   19   20 2
    31   19   21 1
    32   21   26 ar
    33   21   22 ar
    34   22   23 ar
    35   22   28 1
    36   23   24 ar
    37   23   37 1
    38   24   25 ar
    39   24   38 1
    40   25   26 ar
    41   25   39 1
    42   26   27 1
    43   29   40 1
    44   29   41 1
@<TRIPOS>MOLECULE
CHEMBL318076
   47    53     0     0     0
SMALL
USER_CHARGES

@<TRIPOS>ATOM
      1 C1          0.9986    3.2205   -0.7583 C.ar      1 <0>        -0.1518
      2 C2          2.1921    3.3842   -0.0611 C.ar      1 <0>        -0.0718
      3 C3          3.1124    2.3691    0.0046 C.ar      1 <0>        -0.1133
      4 C4          2.7832    1.1889   -0.6588 C.ar      1 <0>         0.1295
      5 C5          1.5873    1.0053   -1.3638 C.ar      1 <0>        -0.0958
      6 C6          0.6616    2.0481   -1.4202 C.ar      1 <0>        -0.0420
      7 C7          1.6530   -0.3550   -1.8911 C.ar      1 <0>        -0.0237
      8 C8          0.7835   -1.1332   -2.6677 C.ar      1 <0>        -0.1038
      9 C9          1.1349   -2.4449   -3.0252 C.ar      1 <0>        -0.1188
     10 C10         2.3597   -2.9816   -2.6055 C.ar      1 <0>        -0.0163
     11 C11         3.0178   -4.2729   -2.7952 C.ar      1 <0>        -0.1215
     12 C12         2.6255   -5.4256   -3.4782 C.ar      1 <0>        -0.0075
     13 C13         3.5062   -6.4933   -3.4586 C.ar      1 <0>        -0.1930
     14 C14         4.7205   -6.4257   -2.7932 C.ar      1 <0>         0.1460
     15 C15         5.1261   -5.2888   -2.1097 C.ar      1 <0>        -0.1908
     16 C16         4.2559   -4.2001   -2.1158 C.ar      1 <0>         0.1652
     17 N1          4.3643   -2.9596   -1.5455 N.pl3     1 <0>        -0.5975
     18 H1          5.1213   -2.6534   -1.0220 H         1 <0>         0.4168
     19 C17         3.2354   -2.2047   -1.8255 C.ar      1 <0>         0.1758
     20 C18         2.8902   -0.8964   -1.4660 C.ar      1 <0>         0.1864
     21 N2          3.5580    0.0524   -0.7251 N.pl3     1 <0>        -0.4801
     22 C19         4.8685    0.0134   -0.0607 C.3       1 <0>         0.1484
     23 C20         5.4126    1.4452    0.0222 C.3       1 <0>        -0.1302
     24 C21         4.4326    2.3970    0.7168 C.3       1 <0>        -0.0713
     25 C22         5.8310   -0.8573   -0.8708 C.3       1 <0>         0.0465
     26 O1          5.2903   -1.0788   -2.1749 O.3       1 <0>        -0.5531
     27 F1          5.5357   -7.5030   -2.8108 F         1 <0>        -0.1363
     28 C23         0.0120   -2.9622   -3.8276 C.2       1 <0>         0.5850
     29 O2         -0.0563   -4.0708   -4.3205 O.2       1 <0>        -0.4640
     30 N3         -0.9248   -2.0017   -3.9221 N.am      1 <0>        -0.6822
     31 C24        -0.5435   -0.8925   -3.2639 C.2       1 <0>         0.5831
     32 O3         -1.1848    0.1358   -3.1757 O.2       1 <0>        -0.4603
     33 H2          0.2996    4.0435   -0.7816 H         1 <0>         0.1252
     34 H3          2.3963    4.3221    0.4340 H         1 <0>         0.1286
     35 H4         -0.2725    1.9475   -1.9529 H         1 <0>         0.1469
     36 H5          1.6798   -5.4817   -3.9969 H         1 <0>         0.1582
     37 H6          3.2400   -7.4036   -3.9752 H         1 <0>         0.1393
     38 H7          6.0747   -5.2492   -1.5949 H         1 <0>         0.1431
     39 H8          4.7589   -0.3962    0.9434 H         1 <0>         0.0995
     40 H9          6.3504    1.4357    0.5776 H         1 <0>         0.0938
     41 H10         5.6046    1.8097   -0.9870 H         1 <0>         0.0807
     42 H11         4.8345    3.4100    0.6966 H         1 <0>         0.0894
     43 H12         4.2935    2.0829    1.7513 H         1 <0>         0.0815
     44 H13         6.7929   -0.3520   -0.9574 H         1 <0>         0.0816
     45 H14         5.9673   -1.8141   -0.3667 H         1 <0>         0.0561
     46 H15         5.8491   -1.6246   -2.7449 H         1 <0>         0.3878
     47 H16        -1.7633   -2.0964   -4.4005 H         1 <0>         0.4306
@<TRIPOS>BOND
     1    1    6 ar
     2    1    2 ar
     3    1   33 1
     4    2    3 ar
     5    2   34 1
     6    3   24 1
     7    3    4 ar
     8    4   21 1
     9    4    5 ar
    10    5    6 ar
    11    5    7 1
    12    6   35 1
    13    7   20 ar
    14    7    8 ar
    15    8   31 1
    16    8    9 ar
    17    9   10 ar
    18    9   28 1
    19   10   19 ar
    20   10   11 1
    21   11   16 ar
    22   11   12 ar
    23   12   13 ar
    24   12   36 1
    25   13   14 ar
    26   13   37 1
    27   14   15 ar
    28   14   27 1
    29   15   16 ar
    30   15   38 1
    31   16   17 1
    32   17   18 1
    33   17   19 1
    34   19   20 ar
    35   20   21 1
    36   21   22 1
    37   22   23 1
    38   22   25 1
    39   22   39 1
    40   23   24 1
    41   23   40 1
    42   23   41 1
    43   24   42 1
    44   24   43 1
    45   25   26 1
    46   25   44 1
    47   25   45 1
    48   26   46 1
    49   28   29 2
    50   28   30 am
    51   30   31 am
    52   30   47 1
    53   31   32 2
@<TRIPOS>MOLECULE
CHEMBL318076
   47    53     0     0     0
SMALL
USER_CHARGES

@<TRIPOS>ATOM
      1 C1          0.5917   -0.3776   -2.7310 C.ar      1 <0>        -0.1482
      2 C2          0.9005    0.4324   -1.6420 C.ar      1 <0>        -0.0704
      3 C3          2.1396    0.3796   -1.0561 C.ar      1 <0>        -0.1070
      4 C4          3.0497   -0.5193   -1.6084 C.ar      1 <0>         0.1318
      5 C5          2.7576   -1.3412   -2.7038 C.ar      1 <0>        -0.0974
      6 C6          1.4924   -1.2742   -3.2888 C.ar      1 <0>        -0.0422
      7 C7          3.9757   -2.1089   -2.9483 C.ar      1 <0>        -0.0112
      8 C8          4.3291   -3.0867   -3.8884 C.ar      1 <0>        -0.0978
      9 C9          5.6127   -3.6557   -3.8702 C.ar      1 <0>        -0.1178
     10 C10         6.5473   -3.2464   -2.9093 C.ar      1 <0>         0.0009
     11 C11         7.9293   -3.6218   -2.6163 C.ar      1 <0>        -0.1236
     12 C12         8.7915   -4.5399   -3.2185 C.ar      1 <0>        -0.0053
     13 C13        10.0614   -4.6506   -2.6790 C.ar      1 <0>        -0.1898
     14 C14        10.4620   -3.8883   -1.5927 C.ar      1 <0>         0.1498
     15 C15         9.6187   -2.9716   -0.9822 C.ar      1 <0>        -0.1875
     16 C16         8.3343   -2.8424   -1.5081 C.ar      1 <0>         0.1714
     17 N1          7.2873   -2.0417   -1.1364 N.pl3     1 <0>        -0.6132
     18 H1          7.3056   -1.4093   -0.4011 H         1 <0>         0.4197
     19 C17         6.1974   -2.2652   -1.9640 C.ar      1 <0>         0.1291
     20 C18         4.9190   -1.6947   -1.9772 C.ar      1 <0>         0.1549
     21 N2          4.3394   -0.7361   -1.1770 N.pl3     1 <0>        -0.4940
     22 C19         4.8688    0.0131   -0.0286 C.3       1 <0>         0.1450
     23 C20         3.6940    0.4090    0.8748 C.3       1 <0>        -0.1132
     24 C21         2.6166    1.1893    0.1135 C.3       1 <0>        -0.0759
     25 C22         5.8466   -0.8662    0.7535 C.3       1 <0>         0.0470
     26 O1          5.4535   -0.9107    2.1267 O.3       1 <0>        -0.5514
     27 F1         11.7152   -4.0436   -1.1124 F         1 <0>        -0.1337
     28 C23         5.6413   -4.6300   -4.9758 C.2       1 <0>         0.5856
     29 O2          6.5877   -5.3280   -5.2820 O.2       1 <0>        -0.4606
     30 N3          4.4440   -4.6174   -5.5885 N.am      1 <0>        -0.6805
     31 C24         3.6155   -3.7328   -5.0054 C.2       1 <0>         0.5832
     32 O3          2.4705   -3.5047   -5.3422 O.2       1 <0>        -0.4561
     33 H2         -0.3972   -0.3082   -3.1595 H         1 <0>         0.1269
     34 H3          0.1554    1.1110   -1.2537 H         1 <0>         0.1307
     35 H4          1.2268   -1.8905   -4.1350 H         1 <0>         0.1481
     36 H5          8.4824   -5.1356   -4.0647 H         1 <0>         0.1604
     37 H6         10.7588   -5.3501   -3.1158 H         1 <0>         0.1420
     38 H7          9.9429   -2.3839   -0.1362 H         1 <0>         0.1462
     39 H8          5.3804    0.9093   -0.3794 H         1 <0>         0.1010
     40 H9          3.2486   -0.4940    1.2922 H         1 <0>         0.0825
     41 H10         4.0680    1.0270    1.6911 H         1 <0>         0.0986
     42 H11         3.0341    2.1309   -0.2431 H         1 <0>         0.0810
     43 H12         1.7781    1.3937    0.7793 H         1 <0>         0.0899
     44 H13         5.8385   -1.8749    0.3404 H         1 <0>         0.0685
     45 H14         6.8511   -0.4500    0.6764 H         1 <0>         0.0610
     46 H15         6.0300   -1.4517    2.6835 H         1 <0>         0.3892
     47 H16         4.2095   -5.1719   -6.3491 H         1 <0>         0.4322
@<TRIPOS>BOND
     1    1    6 ar
     2    1    2 ar
     3    1   33 1
     4    2    3 ar
     5    2   34 1
     6    3   24 1
     7    3    4 ar
     8    4   21 1
     9    4    5 ar
    10    5    6 ar
    11    5    7 1
    12    6   35 1
    13    7   20 ar
    14    7    8 ar
    15    8   31 1
    16    8    9 ar
    17    9   10 ar
    18    9   28 1
    19   10   19 ar
    20   10   11 1
    21   11   16 ar
    22   11   12 ar
    23   12   13 ar
    24   12   36 1
    25   13   14 ar
    26   13   37 1
    27   14   15 ar
    28   14   27 1
    29   15   16 ar
    30   15   38 1
    31   16   17 1
    32   17   18 1
    33   17   19 1
    34   19   20 ar
    35   20   21 1
    36   21   22 1
    37   22   23 1
    38   22   25 1
    39   22   39 1
    40   23   24 1
    41   23   40 1
    42   23   41 1
    43   24   42 1
    44   24   43 1
    45   25   26 1
    46   25   44 1
    47   25   45 1
    48   26   46 1
    49   28   29 2
    50   28   30 am
    51   30   31 am
    52   30   47 1
    53   31   32 2
@<TRIPOS>MOLECULE
CHEMBL73303
   40    43     0     0     0
SMALL
USER_CHARGES

@<TRIPOS>ATOM
      1 C1         -0.0139    1.3542    0.2258 C.2       1 <0>        -0.0910
      2 C2          1.1962    2.0647    0.2246 C.2       1 <0>        -0.1308
      3 C3          2.3725    1.4033    0.1582 C.2       1 <0>         0.0433
      4 N1          2.4009    0.0430    0.0913 N.pl3     1 <0>        -0.3417
      5 C4          1.2379   -0.6785    0.0906 C.2       1 <0>         0.2455
      6 C5          0.0031   -0.0058    0.1597 C.2       1 <0>        -0.0796
      7 N2          1.5431   -1.9702    0.0188 N.2       1 <0>        -0.4938
      8 C6          2.8621   -2.1156   -0.0272 C.2       1 <0>         0.1219
      9 C7          3.4370   -0.8633    0.0167 C.2       1 <0>        -0.0705
     10 C8          4.8766   -0.5541   -0.0115 C.ar      1 <0>         0.3144
     11 C9          5.3190    0.7735   -0.1107 C.ar      1 <0>        -0.2955
     12 C10         6.6781    1.0131   -0.1335 C.ar      1 <0>         0.2036
     13 N3          7.5191   -0.0089   -0.0617 N.ar      1 <0>        -0.5612
     14 C11         7.0757   -1.2543    0.0314 C.ar      1 <0>         0.5713
     15 N4          5.7821   -1.5320    0.0624 N.ar      1 <0>        -0.5528
     16 N5          7.9904   -2.2923    0.1041 N.pl3     1 <0>        -0.6382
     17 C12         9.3573   -2.0142    0.1987 C.ar      1 <0>         0.2307
     18 C13         9.7939   -0.9020    0.9069 C.ar      1 <0>        -0.1383
     19 C14        11.1449   -0.6301    0.9984 C.ar      1 <0>         0.0036
     20 C15        12.0625   -1.4639    0.3859 C.ar      1 <0>        -0.6969
     21 C16        11.6312   -2.5720   -0.3199 C.ar      1 <0>         0.0066
     22 C17        10.2820   -2.8528   -0.4105 C.ar      1 <0>        -0.1708
     23 S1         13.7852   -1.1130    0.5046 S.o2      1 <0>         2.7033
     24 O1         14.4046   -1.7376   -0.6114 O.2       1 <0>        -0.9648
     25 O2         13.8993    0.2805    0.7581 O.2       1 <0>        -0.9644
     26 N6         14.3507   -1.8876    1.8546 N.pl3     1 <0>        -1.2508
     27 H1         -0.9537    1.8831    0.2834 H         1 <0>         0.1500
     28 H2          1.1872    3.1434    0.2766 H         1 <0>         0.1582
     29 H3          3.2990    1.9583    0.1578 H         1 <0>         0.1718
     30 H4         -0.9220   -0.5631    0.1603 H         1 <0>         0.1586
     31 H5          3.3935   -3.0538   -0.0879 H         1 <0>         0.1940
     32 H6          4.6128    1.5886   -0.1682 H         1 <0>         0.1459
     33 H7          7.0526    2.0232   -0.2095 H         1 <0>         0.1769
     34 H8          7.6824   -3.2120    0.0894 H         1 <0>         0.4292
     35 H9          9.0778   -0.2503    1.3852 H         1 <0>         0.1434
     36 H10        11.4850    0.2347    1.5486 H         1 <0>         0.1458
     37 H11        12.3504   -3.2209   -0.7974 H         1 <0>         0.1476
     38 H12         9.9460   -3.7209   -0.9581 H         1 <0>         0.1382
     39 H13        13.7454   -2.4111    2.4027 H         1 <0>         0.4166
     40 H14        15.2872   -1.8177    2.0973 H         1 <0>         0.4208
@<TRIPOS>BOND
     1    1    6 2
     2    1    2 1
     3    1   27 1
     4    2    3 2
     5    2   28 1
     6    3    4 1
     7    3   29 1
     8    4    9 1
     9    4    5 1
    10    5    6 1
    11    5    7 2
    12    6   30 1
    13    7    8 1
    14    8    9 2
    15    8   31 1
    16    9   10 1
    17   10   15 ar
    18   10   11 ar
    19   11   12 ar
    20   11   32 1
    21   12   13 ar
    22   12   33 1
    23   13   14 ar
    24   14   15 ar
    25   14   16 1
    26   16   17 1
    27   16   34 1
    28   17   22 ar
    29   17   18 ar
    30   18   19 ar
    31   18   35 1
    32   19   20 ar
    33   19   36 1
    34   20   21 ar
    35   20   23 1
    36   21   22 ar
    37   21   37 1
    38   22   38 1
    39   23   24 2
    40   23   25 2
    41   23   26 1
    42   26   39 1
    43   26   40 1
@<TRIPOS>MOLECULE
CHEMBL73303
   41    44     0     0     0
SMALL
USER_CHARGES

@<TRIPOS>ATOM
      1 C1         -0.0139    1.3542    0.2258 C.2       1 <0>        -0.0160
      2 C2          1.1962    2.0647    0.2246 C.2       1 <0>        -0.1006
      3 C3          2.3725    1.4033    0.1582 C.2       1 <0>         0.0716
      4 N1          2.4009    0.0430    0.0913 N.pl3     1 <0>        -0.3119
      5 C4          1.2379   -0.6785    0.0906 C.cat     1 <0>         0.3046
      6 C5          0.0031   -0.0058    0.1597 C.2       1 <0>        -0.1156
      7 N2          1.5431   -1.9702    0.0188 N.pl3     1 <0>        -0.5016
      8 C6          2.8621   -2.1156   -0.0272 C.2       1 <0>         0.1411
      9 C7          3.4370   -0.8633    0.0167 C.2       1 <0>         0.0240
     10 C8          4.8766   -0.5541   -0.0115 C.ar      1 <0>         0.2764
     11 C9          5.3190    0.7735   -0.1107 C.ar      1 <0>        -0.2801
     12 C10         6.6781    1.0131   -0.1335 C.ar      1 <0>         0.2185
     13 N3          7.5191   -0.0089   -0.0617 N.ar      1 <0>        -0.5389
     14 C11         7.0757   -1.2543    0.0314 C.ar      1 <0>         0.5828
     15 N4          5.7821   -1.5320    0.0624 N.ar      1 <0>        -0.5482
     16 N5          7.9904   -2.2923    0.1041 N.pl3     1 <0>        -0.6308
     17 C12         9.3573   -2.0142    0.1987 C.ar      1 <0>         0.2136
     18 C13         9.7939   -0.9020    0.9069 C.ar      1 <0>        -0.1362
     19 C14        11.1449   -0.6301    0.9984 C.ar      1 <0>         0.0045
     20 C15        12.0625   -1.4639    0.3859 C.ar      1 <0>        -0.6882
     21 C16        11.6312   -2.5720   -0.3199 C.ar      1 <0>         0.0077
     22 C17        10.2820   -2.8528   -0.4105 C.ar      1 <0>        -0.1634
     23 S1         13.7852   -1.1130    0.5046 S.o2      1 <0>         2.7019
     24 O1         14.4046   -1.7376   -0.6114 O.2       1 <0>        -0.9602
     25 O2         13.8993    0.2805    0.7581 O.2       1 <0>        -0.9606
     26 N6         14.3507   -1.8876    1.8546 N.pl3     1 <0>        -1.2496
     27 H1         -0.9537    1.8831    0.2834 H         1 <0>         0.1798
     28 H2          1.1872    3.1434    0.2766 H         1 <0>         0.1884
     29 H3          3.2990    1.9583    0.1578 H         1 <0>         0.2039
     30 H4         -0.9220   -0.5631    0.1603 H         1 <0>         0.1847
     31 H5          3.3935   -3.0538   -0.0879 H         1 <0>         0.2400
     32 H6          4.6128    1.5886   -0.1682 H         1 <0>         0.1487
     33 H7          7.0526    2.0232   -0.2095 H         1 <0>         0.1882
     34 H8          7.6824   -3.2120    0.0894 H         1 <0>         0.4312
     35 H9          9.0778   -0.2503    1.3852 H         1 <0>         0.1417
     36 H10        11.4850    0.2347    1.5486 H         1 <0>         0.1493
     37 H11        12.3504   -3.2209   -0.7974 H         1 <0>         0.1516
     38 H12         9.9460   -3.7209   -0.9581 H         1 <0>         0.1399
     39 H13        13.7454   -2.4111    2.4027 H         1 <0>         0.4163
     40 H14        15.2872   -1.8177    2.0973 H         1 <0>         0.4233
     41 H15         0.9000   -2.6962    0.0029 H         1 <0>         0.4681
@<TRIPOS>BOND
     1    1    6 2
     2    1    2 1
     3    1   27 1
     4    2    3 2
     5    2   28 1
     6    3    4 1
     7    3   29 1
     8    4    9 1
     9    4    5 1
    10    5    6 1
    11    5    7 2
    12    6   30 1
    13    7    8 1
    14    7   41 1
    15    8    9 2
    16    8   31 1
    17    9   10 1
    18   10   15 ar
    19   10   11 ar
    20   11   12 ar
    21   11   32 1
    22   12   13 ar
    23   12   33 1
    24   13   14 ar
    25   14   15 ar
    26   14   16 1
    27   16   17 1
    28   16   34 1
    29   17   22 ar
    30   17   18 ar
    31   18   19 ar
    32   18   35 1
    33   19   20 ar
    34   19   36 1
    35   20   21 ar
    36   20   23 1
    37   21   22 ar
    38   21   37 1
    39   22   38 1
    40   23   24 2
    41   23   25 2
    42   23   26 1
    43   26   39 1
    44   26   40 1
@<TRIPOS>MOLECULE
CHEMBL336016
   38    42     0     0     0
SMALL
USER_CHARGES

@<TRIPOS>ATOM
      1 C1         -0.0169    1.3925    0.0097 C.ar      1 <0>        -0.1758
      2 C2          1.1702    2.0811    0.0021 C.ar      1 <0>        -0.0675
      3 C3          2.4021    1.4169   -0.0138 C.ar      1 <0>        -0.1475
      4 C4          2.4278    0.0411   -0.0215 C.ar      1 <0>        -0.0690
      5 C5          1.2249   -0.6651   -0.0137 C.ar      1 <0>        -0.1174
      6 C6          0.0021   -0.0041    0.0020 C.ar      1 <0>         0.1624
      7 N1         -1.1683   -0.7127    0.0093 N.2       1 <0>        -0.5480
      8 C7         -2.1360   -0.3702    0.8222 C.2       1 <0>         0.2914
      9 C8         -3.3479   -1.1040    0.8298 C.2       1 <0>        -0.3540
     10 C9         -4.5314   -0.8482    1.6738 C.ar      1 <0>         0.0141
     11 C10        -5.4729   -1.8294    1.3259 C.ar      1 <0>         0.1020
     12 C11        -6.7098   -1.8384    1.9708 C.ar      1 <0>        -0.1025
     13 C12        -7.0217   -0.9221    2.9236 C.ar      1 <0>        -0.0820
     14 C13        -6.1005    0.0827    3.3025 C.ar      1 <0>         0.0486
     15 C14        -4.8529    0.0844    2.6462 C.ar      1 <0>        -0.1290
     16 S1         -4.0376    1.4647    3.4050 S.3       1 <0>         0.0554
     17 C15        -5.2740    1.9221    4.4513 C.2       1 <0>         0.0406
     18 N2         -6.2266    1.0678    4.2163 N.2       1 <0>        -0.5021
     19 N3         -4.9136   -2.6271    0.3448 N.pl3     1 <0>        -0.6235
     20 H1         -5.3563   -3.3829   -0.0721 H         1 <0>         0.4029
     21 C16        -3.6596   -2.2008    0.0418 C.2       1 <0>         0.4906
     22 O1         -2.8434   -2.7602   -0.8803 O.3       1 <0>        -0.6347
     23 C17         3.8063   -0.6219   -0.0380 C.3       1 <0>        -0.5302
     24 S2          4.8945    0.7775   -0.5268 S.o2      1 <0>         2.3842
     25 O2          6.0455    0.7939    0.3063 O.2       1 <0>        -0.9402
     26 O3          5.0450    0.7876   -1.9397 O.2       1 <0>        -0.9307
     27 C18         3.7556    2.1301   -0.0222 C.3       1 <0>        -0.5201
     28 H2         -0.9563    1.9251    0.0260 H         1 <0>         0.1242
     29 H3          1.1534    3.1610    0.0081 H         1 <0>         0.1193
     30 H4          1.2439   -1.7449   -0.0197 H         1 <0>         0.1276
     31 H5         -2.0102    0.4717    1.4870 H         1 <0>         0.0754
     32 H6         -7.4369   -2.5918    1.7060 H         1 <0>         0.1234
     33 H7         -7.9901   -0.9609    3.4001 H         1 <0>         0.1254
     34 H8         -5.2763    2.7396    5.1571 H         1 <0>         0.2123
     35 H9          4.0713   -0.9944    0.9514 H         1 <0>         0.1474
     36 H10         3.8449   -1.4221   -0.7772 H         1 <0>         0.1449
     37 H11         3.7648    2.9397   -0.7521 H         1 <0>         0.1397
     38 H12         4.0069    2.5006    0.9716 H         1 <0>         0.1425
@<TRIPOS>BOND
     1    1    6 ar
     2    1    2 ar
     3    1   28 1
     4    2    3 ar
     5    2   29 1
     6    3   27 1
     7    3    4 ar
     8    4    5 ar
     9    4   23 1
    10    5    6 ar
    11    5   30 1
    12    6    7 1
    13    7    8 2
    14    8    9 1
    15    8   31 1
    16    9   21 2
    17    9   10 1
    18   10   15 ar
    19   10   11 ar
    20   11   12 ar
    21   11   19 1
    22   12   13 ar
    23   12   32 1
    24   13   14 ar
    25   13   33 1
    26   14   18 1
    27   14   15 ar
    28   15   16 1
    29   16   17 1
    30   17   18 2
    31   17   34 1
    32   19   20 1
    33   19   21 1
    34   21   22 1
    35   23   24 1
    36   23   35 1
    37   23   36 1
    38   24   25 2
    39   24   26 2
    40   24   27 1
    41   27   37 1
    42   27   38 1
@<TRIPOS>MOLECULE
CHEMBL336016
   39    43     0     0     0
SMALL
USER_CHARGES

@<TRIPOS>ATOM
      1 C1         -0.0169    1.3925    0.0097 C.ar      1 <0>        -0.1458
      2 C2          1.1702    2.0811    0.0021 C.ar      1 <0>        -0.0732
      3 C3          2.4021    1.4169   -0.0138 C.ar      1 <0>        -0.1045
      4 C4          2.4278    0.0411   -0.0215 C.ar      1 <0>        -0.0734
      5 C5          1.2249   -0.6651   -0.0137 C.ar      1 <0>        -0.0868
      6 C6          0.0021   -0.0041    0.0020 C.ar      1 <0>         0.1078
      7 N1         -1.1683   -0.7127    0.0093 N.2       1 <0>        -0.4938
      8 C7         -2.1360   -0.3702    0.8222 C.2       1 <0>         0.2492
      9 C8         -3.3479   -1.1040    0.8298 C.2       1 <0>        -0.1845
     10 C9         -4.5314   -0.8482    1.6738 C.ar      1 <0>        -0.0172
     11 C10        -5.4729   -1.8294    1.3259 C.ar      1 <0>         0.1095
     12 C11        -6.7098   -1.8384    1.9708 C.ar      1 <0>        -0.0963
     13 C12        -7.0217   -0.9221    2.9236 C.ar      1 <0>        -0.0423
     14 C13        -6.1005    0.0827    3.3025 C.ar      1 <0>         0.0725
     15 C14        -4.8529    0.0844    2.6462 C.ar      1 <0>        -0.1281
     16 S1         -4.0376    1.4647    3.4050 S.3       1 <0>         0.0984
     17 C15        -5.2740    1.9221    4.4513 C.2       1 <0>         0.0679
     18 N2         -6.2266    1.0678    4.2163 N.2       1 <0>        -0.5024
     19 N3         -4.9136   -2.6271    0.3448 N.pl3     1 <0>        -0.5722
     20 H1         -5.3563   -3.3829   -0.0721 H         1 <0>         0.4243
     21 C16        -3.6596   -2.2008    0.0418 C.2       1 <0>         0.3468
     22 O1         -2.8434   -2.7602   -0.8803 O.3       1 <0>        -0.4404
     23 C17         3.8063   -0.6219   -0.0380 C.3       1 <0>        -0.5379
     24 S2          4.8945    0.7775   -0.5268 S.o2      1 <0>         2.3889
     25 O2          6.0455    0.7939    0.3063 O.2       1 <0>        -0.9279
     26 O3          5.0450    0.7876   -1.9397 O.2       1 <0>        -0.9223
     27 C18         3.7556    2.1301   -0.0222 C.3       1 <0>        -0.5348
     28 H2         -0.9563    1.9251    0.0260 H         1 <0>         0.1319
     29 H3          1.1534    3.1610    0.0081 H         1 <0>         0.1316
     30 H4          1.2439   -1.7449   -0.0197 H         1 <0>         0.1338
     31 H5         -2.0102    0.4717    1.4870 H         1 <0>         0.1058
     32 H6         -7.4369   -2.5918    1.7060 H         1 <0>         0.1393
     33 H7         -7.9901   -0.9609    3.4001 H         1 <0>         0.1434
     34 H8         -5.2763    2.7396    5.1571 H         1 <0>         0.2245
     35 H9         -2.2762   -3.4608   -0.5302 H         1 <0>         0.4065
     36 H10         4.0713   -0.9944    0.9514 H         1 <0>         0.1527
     37 H11         3.8449   -1.4221   -0.7772 H         1 <0>         0.1493
     38 H12         3.7648    2.9397   -0.7521 H         1 <0>         0.1481
     39 H13         4.0069    2.5006    0.9716 H         1 <0>         0.1516
@<TRIPOS>BOND
     1    1    6 ar
     2    1    2 ar
     3    1   28 1
     4    2    3 ar
     5    2   29 1
     6    3   27 1
     7    3    4 ar
     8    4    5 ar
     9    4   23 1
    10    5    6 ar
    11    5   30 1
    12    6    7 1
    13    7    8 2
    14    8    9 1
    15    8   31 1
    16    9   21 2
    17    9   10 1
    18   10   15 ar
    19   10   11 ar
    20   11   12 ar
    21   11   19 1
    22   12   13 ar
    23   12   32 1
    24   13   14 ar
    25   13   33 1
    26   14   18 1
    27   14   15 ar
    28   15   16 1
    29   16   17 1
    30   17   18 2
    31   17   34 1
    32   19   20 1
    33   19   21 1
    34   21   22 1
    35   22   35 1
    36   23   24 1
    37   23   36 1
    38   23   37 1
    39   24   25 2
    40   24   26 2
    41   24   27 1
    42   27   38 1
    43   27   39 1
@<TRIPOS>MOLECULE
CHEMBL576257
   40    42     0     0     0
SMALL
USER_CHARGES

@<TRIPOS>ATOM
      1 C1          0.0231   -8.2359   -1.0377 C.3       1 <0>        -0.0954
      2 C2          0.0407   -6.7617   -0.7253 C.2       1 <0>         0.0930
      3 C3          0.0202   -5.7561   -1.6293 C.2       1 <0>        -0.2718
      4 C4          0.0478   -4.5420   -0.9239 C.2       1 <0>         0.3070
      5 N1          0.0835   -4.8178    0.3588 N.2       1 <0>        -0.3222
      6 N2          0.0738   -6.2108    0.5064 N.pl3     1 <0>        -0.4668
      7 H1          0.0905   -6.6948    1.3468 H         1 <0>         0.4408
      8 N3          0.0392   -3.2613   -1.4899 N.pl3     1 <0>        -0.6022
      9 C5          0.1351   -3.1105   -2.8641 C.ar      1 <0>         0.4338
     10 C6          0.2262   -1.8317   -3.4203 C.ar      1 <0>        -0.0362
     11 N4          0.3175   -1.6812   -4.7239 N.ar      1 <0>        -0.3280
     12 C7          0.3239   -2.7493   -5.5206 C.ar      1 <0>         0.0106
     13 C8          0.2329   -4.0368   -4.9647 C.ar      1 <0>         0.4549
     14 N5          0.1457   -4.1814   -3.6485 N.ar      1 <0>        -0.5421
     15 N6          0.2386   -5.1501   -5.7866 N.pl3     1 <0>        -0.6867
     16 C9          0.1436   -6.4910   -5.2043 C.3       1 <0>         0.2009
     17 H2          0.6722   -6.5116   -4.2513 H         1 <0>         0.1149
     18 C10        -1.3275   -6.8463   -4.9793 C.3       1 <0>        -0.1635
     19 C11         0.7640   -7.4921   -6.1445 C.ar      1 <0>         0.1055
     20 C12         1.2564   -8.6834   -5.6453 C.ar      1 <0>        -0.1290
     21 C13         1.8252   -9.5980   -6.5174 C.ar      1 <0>        -0.1016
     22 C14         1.8779   -9.2784   -7.8679 C.ar      1 <0>         0.0514
     23 C15         1.3641   -8.0656   -8.2935 C.ar      1 <0>         0.0854
     24 N7          0.8255   -7.2231   -7.4338 N.ar      1 <0>        -0.4558
     25 F1          2.4238  -10.1395   -8.7543 F         1 <0>        -0.1256
     26 C16         0.4228   -2.5856   -6.9398 C.1       1 <0>         0.2727
     27 N8          0.5013   -2.4557   -8.0656 N.1       1 <0>        -0.3966
     28 H3         -1.0085   -8.5843   -1.0881 H         1 <0>         0.0837
     29 H4          0.5127   -8.4101   -1.9958 H         1 <0>         0.0855
     30 H5          0.5523   -8.7794   -0.2550 H         1 <0>         0.0731
     31 H6         -0.0111   -5.8669   -2.7031 H         1 <0>         0.1826
     32 H7         -0.0339   -2.4797   -0.9202 H         1 <0>         0.4323
     33 H8          0.2213   -0.9638   -2.7776 H         1 <0>         0.1794
     34 H9          0.3054   -5.0426   -6.7483 H         1 <0>         0.4259
     35 H10        -1.7762   -6.1222   -4.2992 H         1 <0>         0.0765
     36 H11        -1.8561   -6.8257   -5.9323 H         1 <0>         0.0646
     37 H12        -1.3982   -7.8440   -4.5460 H         1 <0>         0.0735
     38 H13         1.1988   -8.8985   -4.5885 H         1 <0>         0.1502
     39 H14         2.2183  -10.5366   -6.1555 H         1 <0>         0.1531
     40 H15         1.4007   -7.8084   -9.3418 H         1 <0>         0.1722
@<TRIPOS>BOND
     1    1    2 1
     2    1   28 1
     3    1   29 1
     4    1   30 1
     5    2    6 1
     6    2    3 2
     7    3    4 1
     8    3   31 1
     9    4    5 2
    10    4    8 1
    11    5    6 1
    12    6    7 1
    13    8    9 1
    14    8   32 1
    15    9   14 ar
    16    9   10 ar
    17   10   11 ar
    18   10   33 1
    19   11   12 ar
    20   12   13 ar
    21   12   26 1
    22   13   14 ar
    23   13   15 1
    24   15   16 1
    25   15   34 1
    26   16   17 1
    27   16   18 1
    28   16   19 1
    29   18   35 1
    30   18   36 1
    31   18   37 1
    32   19   24 ar
    33   19   20 ar
    34   20   21 ar
    35   20   38 1
    36   21   22 ar
    37   21   39 1
    38   22   23 ar
    39   22   25 1
    40   23   24 ar
    41   23   40 1
    42   26   27 3
@<TRIPOS>MOLECULE
CHEMBL576257
   40    42     0     0     0
SMALL
USER_CHARGES

@<TRIPOS>ATOM
      1 C1          0.2026   -8.2088    0.9441 C.3       1 <0>        -0.0770
      2 C2          0.1422   -6.7322    0.6492 C.2       1 <0>         0.0864
      3 C3          0.1463   -5.7084    1.6002 C.2       1 <0>        -0.2786
      4 C4          0.0808   -4.5213    0.9361 C.2       1 <0>         0.3123
      5 N1          0.0372   -4.7995   -0.3926 N.pl3     1 <0>        -0.4945
      6 N2          0.0828   -6.1916   -0.5407 N.2       1 <0>        -0.2841
      7 H1         -0.0133   -4.1498   -1.1111 H         1 <0>         0.4364
      8 N3          0.0614   -3.2541    1.5137 N.pl3     1 <0>        -0.6183
      9 C5         -0.0313   -3.1212    2.8902 C.ar      1 <0>         0.4293
     10 C6         -0.1540   -1.8516    3.4611 C.ar      1 <0>        -0.0354
     11 N4         -0.2420   -1.7181    4.7668 N.ar      1 <0>        -0.3279
     12 C7         -0.2148   -2.7947    5.5515 C.ar      1 <0>         0.0158
     13 C8         -0.0919   -4.0731    4.9806 C.ar      1 <0>         0.4551
     14 N5         -0.0086   -4.2006    3.6625 N.ar      1 <0>        -0.5373
     15 N6         -0.0629   -5.1951    5.7900 N.pl3     1 <0>        -0.6845
     16 C9          0.0653   -6.5264    5.1921 C.3       1 <0>         0.2001
     17 H2         -0.4677   -6.5507    4.2416 H         1 <0>         0.1168
     18 C10         1.5442   -6.8391    4.9557 C.3       1 <0>        -0.1633
     19 C11        -0.5227   -7.5544    6.1242 C.ar      1 <0>         0.1047
     20 C12        -0.9853   -8.7530    5.6140 C.ar      1 <0>        -0.1276
     21 C13        -1.5244   -9.6924    6.4786 C.ar      1 <0>        -0.1015
     22 C14        -1.5786   -9.3894    7.8329 C.ar      1 <0>         0.0517
     23 C15        -1.0955   -8.1679    8.2695 C.ar      1 <0>         0.0845
     24 N7         -0.5846   -7.3015    7.4167 N.ar      1 <0>        -0.4567
     25 F1         -2.0962  -10.2748    8.7123 F         1 <0>        -0.1257
     26 C16        -0.3100   -2.6495    6.9730 C.1       1 <0>         0.2709
     27 N8         -0.3856   -2.5343    8.1006 N.1       1 <0>        -0.3927
     28 H3         -0.8092   -8.5986    1.0560 H         1 <0>         0.0784
     29 H4          0.7014   -8.7233    0.1227 H         1 <0>         0.0743
     30 H5          0.7592   -8.3726    1.8669 H         1 <0>         0.0786
     31 H6          0.1928   -5.8359    2.6717 H         1 <0>         0.1833
     32 H7          0.1126   -2.4645    0.9525 H         1 <0>         0.4282
     33 H8         -0.1764   -0.9768    2.8281 H         1 <0>         0.1787
     34 H9         -0.1275   -5.1002    6.7532 H         1 <0>         0.4263
     35 H10         1.9695   -6.0956    4.2816 H         1 <0>         0.0760
     36 H11         2.0772   -6.8148    5.9062 H         1 <0>         0.0643
     37 H12         1.6396   -7.8296    4.5109 H         1 <0>         0.0752
     38 H13        -0.9276   -8.9548    4.5546 H         1 <0>         0.1523
     39 H14        -1.8939  -10.6372    6.1082 H         1 <0>         0.1535
     40 H15        -1.1335   -7.9235    9.3208 H         1 <0>         0.1718
@<TRIPOS>BOND
     1    1    2 1
     2    1   28 1
     3    1   29 1
     4    1   30 1
     5    2    3 1
     6    2    6 2
     7    3   31 1
     8    3    4 2
     9    4    8 1
    10    4    5 1
    11    5    7 1
    12    5    6 1
    13    8    9 1
    14    8   32 1
    15    9   14 ar
    16    9   10 ar
    17   10   11 ar
    18   10   33 1
    19   11   12 ar
    20   12   13 ar
    21   12   26 1
    22   13   14 ar
    23   13   15 1
    24   15   16 1
    25   15   34 1
    26   16   17 1
    27   16   18 1
    28   16   19 1
    29   18   35 1
    30   18   36 1
    31   18   37 1
    32   19   24 ar
    33   19   20 ar
    34   20   21 ar
    35   20   38 1
    36   21   22 ar
    37   21   39 1
    38   22   23 ar
    39   22   25 1
    40   23   24 ar
    41   23   40 1
    42   26   27 3
@<TRIPOS>MOLECULE
CHEMBL182011
   54    57     0     0     0
SMALL
USER_CHARGES

@<TRIPOS>ATOM
      1 C1         -0.5590    1.9571   -0.4275 C.3       1 <0>        -0.1439
      2 C2         -0.2457    0.4638   -0.3142 C.3       1 <0>        -0.0366
      3 C3          0.6651    0.2238    0.8915 C.3       1 <0>        -0.1436
      4 C4         -1.5287   -0.3065   -0.1358 C.ar      1 <0>        -0.1258
      5 C5         -2.3464   -0.0537    0.9445 C.ar      1 <0>         0.1767
      6 C6         -3.5393   -0.7620    1.1207 C.ar      1 <0>        -0.2139
      7 C7         -3.9224   -1.7177    0.2308 C.ar      1 <0>        -0.0211
      8 C8         -3.1124   -1.9991   -0.8795 C.ar      1 <0>        -0.2395
      9 C9         -1.9025   -1.2808   -1.0693 C.ar      1 <0>         0.2457
     10 N1         -1.1473   -1.5619   -2.1396 N.ar      1 <0>        -0.5667
     11 C10        -1.5315   -2.4865   -2.9981 C.ar      1 <0>         0.5722
     12 N2         -2.6626   -3.1747   -2.8535 N.ar      1 <0>        -0.5562
     13 C11        -3.4636   -2.9774   -1.8270 C.ar      1 <0>         0.2456
     14 N3         -0.7276   -2.7519   -4.0929 N.pl3     1 <0>        -0.6339
     15 C12        -1.1634   -3.6425   -5.0824 C.ar      1 <0>         0.1037
     16 C13        -2.4954   -3.6467   -5.4750 C.ar      1 <0>        -0.0553
     17 C14        -2.9251   -4.5248   -6.4500 C.ar      1 <0>        -0.1799
     18 C15        -2.0251   -5.4036   -7.0384 C.ar      1 <0>         0.2082
     19 C16        -0.6929   -5.3991   -6.6462 C.ar      1 <0>        -0.1792
     20 C17        -0.2622   -4.5173   -5.6749 C.ar      1 <0>        -0.0910
     21 N4         -2.4607   -6.2941   -8.0263 N.pl3     1 <0>        -0.6344
     22 C18        -1.5547   -7.3123   -8.5811 C.3       1 <0>         0.0873
     23 C19        -2.2600   -8.6720   -8.5196 C.3       1 <0>         0.0454
     24 O1         -3.5459   -8.5635   -9.1348 O.3       1 <0>        -0.3796
     25 C20        -4.4323   -7.6519   -8.4812 C.3       1 <0>         0.0452
     26 C21        -3.8399   -6.2437   -8.5367 C.3       1 <0>         0.0867
     27 O2         -1.9892    0.8942    1.8487 O.3       1 <0>        -0.3002
     28 C22        -2.8777    1.1107    2.9468 C.3       1 <0>         0.0197
     29 H1          0.3689    2.5142   -0.5565 H         1 <0>         0.0547
     30 H2         -1.2079    2.1281   -1.2865 H         1 <0>         0.0478
     31 H3         -1.0612    2.2928    0.4798 H         1 <0>         0.0653
     32 H4          0.2565    0.1281   -1.2215 H         1 <0>         0.0895
     33 H5          0.1629    0.5595    1.7988 H         1 <0>         0.0649
     34 H6          0.8882   -0.8401    0.9722 H         1 <0>         0.0478
     35 H7          1.5930    0.7809    0.7625 H         1 <0>         0.0547
     36 H8         -4.1648   -0.5479    1.9746 H         1 <0>         0.1362
     37 H9         -4.8460   -2.2576    0.3790 H         1 <0>         0.1379
     38 H10        -4.3773   -3.5437   -1.7230 H         1 <0>         0.1768
     39 H11         0.1376   -2.3212   -4.1751 H         1 <0>         0.4218
     40 H12        -3.1954   -2.9633   -5.0173 H         1 <0>         0.1265
     41 H13        -3.9612   -4.5285   -6.7547 H         1 <0>         0.1245
     42 H14         0.0070   -6.0828   -7.1035 H         1 <0>         0.1256
     43 H15         0.7746   -4.5110   -5.3727 H         1 <0>         0.1244
     44 H16        -1.3180   -7.0681   -9.6166 H         1 <0>         0.0703
     45 H17        -0.6378   -7.3475   -7.9928 H         1 <0>         0.0922
     46 H18        -1.6645   -9.4154   -9.0495 H         1 <0>         0.1048
     47 H19        -2.3786   -8.9739   -7.4790 H         1 <0>         0.0558
     48 H20        -5.3997   -7.6614   -8.9835 H         1 <0>         0.1050
     49 H21        -4.5588   -7.9501   -7.4404 H         1 <0>         0.0556
     50 H22        -4.4356   -5.5715   -7.9190 H         1 <0>         0.0929
     51 H23        -3.8372   -5.8900   -9.5677 H         1 <0>         0.0701
     52 H24        -3.8531    1.4183    2.5698 H         1 <0>         0.0582
     53 H25        -2.9830    0.1873    3.5164 H         1 <0>         0.0581
     54 H26        -2.4747    1.8915    3.5918 H         1 <0>         0.1031
@<TRIPOS>BOND
     1    1    2 1
     2    1   29 1
     3    1   30 1
     4    1   31 1
     5    2    3 1
     6    2    4 1
     7    2   32 1
     8    3   33 1
     9    3   34 1
    10    3   35 1
    11    4    9 ar
    12    4    5 ar
    13    5    6 ar
    14    5   27 1
    15    6    7 ar
    16    6   36 1
    17    7    8 ar
    18    7   37 1
    19    8   13 ar
    20    8    9 ar
    21    9   10 ar
    22   10   11 ar
    23   11   12 ar
    24   11   14 1
    25   12   13 ar
    26   13   38 1
    27   14   15 1
    28   14   39 1
    29   15   20 ar
    30   15   16 ar
    31   16   17 ar
    32   16   40 1
    33   17   18 ar
    34   17   41 1
    35   18   19 ar
    36   18   21 1
    37   19   20 ar
    38   19   42 1
    39   20   43 1
    40   21   26 1
    41   21   22 1
    42   22   23 1
    43   22   44 1
    44   22   45 1
    45   23   24 1
    46   23   46 1
    47   23   47 1
    48   24   25 1
    49   25   26 1
    50   25   48 1
    51   25   49 1
    52   26   50 1
    53   26   51 1
    54   27   28 1
    55   28   52 1
    56   28   53 1
    57   28   54 1
@<TRIPOS>MOLECULE
CHEMBL356603
   40    42     0     0     0
SMALL
USER_CHARGES

@<TRIPOS>ATOM
      1 C1          0.6648    2.3277   -0.4827 C.3       1 <0>        -0.1518
      2 C2          0.4479    0.8162   -0.3873 C.3       1 <0>        -0.1186
      3 C3          1.1158    0.1289   -1.5801 C.3       1 <0>        -0.1287
      4 C4          0.8989   -1.3827   -1.4847 C.3       1 <0>         0.0995
      5 N1          1.5384   -2.0407   -2.6268 N.am      1 <0>        -0.5056
      6 C5          0.8388   -2.2302   -3.7596 C.2       1 <0>         0.5420
      7 O1         -0.3176   -1.8488   -3.8128 O.2       1 <0>        -0.5204
      8 C6          1.4062   -2.8572   -4.8874 C.2       1 <0>        -0.2300
      9 C7          2.6933   -3.2910   -4.8526 C.2       1 <0>         0.0118
     10 C8          3.4586   -3.0891   -3.6260 C.ar      1 <0>        -0.2866
     11 C9          2.8432   -2.4496   -2.5273 C.ar      1 <0>         0.4628
     12 N2          3.5495   -2.2659   -1.4193 N.ar      1 <0>        -0.5928
     13 C10         4.8088   -2.6718   -1.3526 C.ar      1 <0>         0.6050
     14 N3          5.4203   -3.2712   -2.3683 N.ar      1 <0>        -0.5689
     15 C11         4.7890   -3.5056   -3.5049 C.ar      1 <0>         0.2581
     16 N4          5.5132   -2.4634   -0.1823 N.pl3     1 <0>        -0.6278
     17 C12         6.8749   -2.7740   -0.1212 C.ar      1 <0>         0.1560
     18 C13         7.6772   -2.6100   -1.2432 C.ar      1 <0>        -0.1104
     19 C14         9.0221   -2.9172   -1.1794 C.ar      1 <0>        -0.1007
     20 C15         9.5702   -3.3881   -0.0003 C.ar      1 <0>        -0.1336
     21 C16         8.7742   -3.5529    1.1184 C.ar      1 <0>        -0.0993
     22 C17         7.4298   -3.2417    1.0632 C.ar      1 <0>        -0.1447
     23 H1          1.7333    2.5427   -0.4743 H         1 <0>         0.0531
     24 H2          0.2265    2.7000   -1.4087 H         1 <0>         0.0545
     25 H3          0.1890    2.8173    0.3670 H         1 <0>         0.0570
     26 H4          0.8862    0.4439    0.5386 H         1 <0>         0.0649
     27 H5         -0.6206    0.6012   -0.3957 H         1 <0>         0.0657
     28 H6          0.6775    0.5011   -2.5060 H         1 <0>         0.0671
     29 H7          2.1843    0.3439   -1.5717 H         1 <0>         0.0657
     30 H8          1.3372   -1.7549   -0.5587 H         1 <0>         0.0985
     31 H9         -0.1697   -1.5976   -1.4931 H         1 <0>         0.0975
     32 H10         0.8160   -2.9935   -5.7815 H         1 <0>         0.1600
     33 H11         3.1387   -3.7731   -5.7102 H         1 <0>         0.1530
     34 H12         5.2923   -3.9940   -4.3262 H         1 <0>         0.1866
     35 H13         5.0628   -2.1017    0.5970 H         1 <0>         0.4257
     36 H14         7.2497   -2.2430   -2.1646 H         1 <0>         0.1343
     37 H15         9.6465   -2.7899   -2.0514 H         1 <0>         0.1259
     38 H16        10.6222   -3.6279    0.0469 H         1 <0>         0.1237
     39 H17         9.2053   -3.9212    2.0376 H         1 <0>         0.1268
     40 H18         6.8096   -3.3661    1.9386 H         1 <0>         0.1248
@<TRIPOS>BOND
     1    1    2 1
     2    1   23 1
     3    1   24 1
     4    1   25 1
     5    2    3 1
     6    2   26 1
     7    2   27 1
     8    3    4 1
     9    3   28 1
    10    3   29 1
    11    4    5 1
    12    4   30 1
    13    4   31 1
    14    5   11 1
    15    5    6 am
    16    6    7 2
    17    6    8 1
    18    8    9 2
    19    8   32 1
    20    9   10 1
    21    9   33 1
    22   10   15 ar
    23   10   11 ar
    24   11   12 ar
    25   12   13 ar
    26   13   14 ar
    27   13   16 1
    28   14   15 ar
    29   15   34 1
    30   16   17 1
    31   16   35 1
    32   17   22 ar
    33   17   18 ar
    34   18   19 ar
    35   18   36 1
    36   19   20 ar
    37   19   37 1
    38   20   21 ar
    39   20   38 1
    40   21   22 ar
    41   21   39 1
    42   22   40 1
@<TRIPOS>MOLECULE
CHEMBL515839
   59    62     0     0     0
SMALL
USER_CHARGES

@<TRIPOS>ATOM
      1 C1         -0.3035    1.5916   -0.2006 C.3       1 <0>        -0.1416
      2 C2         -0.2204    0.0919   -0.0785 C.cat     1 <0>         0.3299
      3 N1         -0.3374   -0.7570   -1.0651 N.pl3     1 <0>        -0.4779
      4 C3         -0.2111   -2.0037   -0.6007 C.2       1 <0>         0.0661
      5 C4         -0.0049   -1.9296    0.7438 C.2       1 <0>         0.0811
      6 N2         -0.0076   -0.5897    1.0654 N.pl3     1 <0>        -0.3913
      7 C5          0.1821   -0.0142    2.3992 C.3       1 <0>         0.1096
      8 C6          1.6270   -0.2375    2.8502 C.3       1 <0>        -0.1882
      9 C7         -0.1118    1.4866    2.3536 C.3       1 <0>        -0.1960
     10 C8          0.1887   -3.0612    1.6722 C.ar      1 <0>         0.2668
     11 C9          0.2594   -2.8438    3.0541 C.ar      1 <0>        -0.2822
     12 C10         0.4409   -3.9342    3.8831 C.ar      1 <0>         0.2147
     13 N3          0.5419   -5.1434    3.3517 N.ar      1 <0>        -0.5351
     14 C11         0.4716   -5.3214    2.0403 C.ar      1 <0>         0.5804
     15 N4          0.2934   -4.3070    1.2090 N.ar      1 <0>        -0.5453
     16 N5          0.5825   -6.6032    1.5266 N.pl3     1 <0>        -0.6308
     17 C12         0.6504   -7.6995    2.3916 C.ar      1 <0>         0.2072
     18 C13        -0.0655   -7.6924    3.5819 C.ar      1 <0>        -0.1342
     19 C14         0.0033   -8.7771    4.4338 C.ar      1 <0>        -0.0006
     20 C15         0.7838   -9.8697    4.1029 C.ar      1 <0>        -0.6745
     21 C16         1.4982   -9.8799    2.9189 C.ar      1 <0>         0.0004
     22 C17         1.4292   -8.8007    2.0598 C.ar      1 <0>        -0.1620
     23 S1          0.8688  -11.2516    5.1927 S.o2      1 <0>         2.5008
     24 O1          2.1265  -11.8532    4.9180 O.2       1 <0>        -0.9343
     25 O2          0.5870  -10.7171    6.4788 O.2       1 <0>        -0.9163
     26 C18        -0.4767  -12.3467    4.6627 C.3       1 <0>        -0.6230
     27 C19        -0.4985  -13.5937    5.5490 C.3       1 <0>         0.0856
     28 C20        -1.5651  -14.5838    5.0338 C.3       1 <0>        -0.1431
     29 C21        -2.1724  -15.1306    6.3545 C.3       1 <0>        -0.1595
     30 C22        -2.0831  -13.8768    7.2605 C.3       1 <0>         0.0477
     31 O3         -0.8548  -13.2318    6.8883 O.3       1 <0>        -0.3708
     32 H1          0.7025    2.0103   -0.2277 H         1 <0>         0.1256
     33 H2         -0.8306    1.8528   -1.1182 H         1 <0>         0.1148
     34 H3         -0.8426    1.9966    0.6559 H         1 <0>         0.1416
     35 H4         -0.2638   -2.9091   -1.1870 H         1 <0>         0.2326
     36 H5         -0.4967   -0.4961    3.1028 H         1 <0>         0.1326
     37 H6          1.7910    0.2622    3.8049 H         1 <0>         0.1069
     38 H7          1.8115   -1.3058    2.9628 H         1 <0>         0.0828
     39 H8          2.3079    0.1722    2.1040 H         1 <0>         0.0772
     40 H9         -1.1588    1.6441    2.0945 H         1 <0>         0.0863
     41 H10         0.0910    1.9264    3.3301 H         1 <0>         0.1082
     42 H11         0.5231    1.9586    1.6037 H         1 <0>         0.0925
     43 H12         0.1744   -1.8474    3.4620 H         1 <0>         0.1600
     44 H13         0.5001   -3.8020    4.9534 H         1 <0>         0.1877
     45 H14         0.6132   -6.7400    0.5668 H         1 <0>         0.4305
     46 H15        -0.6750   -6.8393    3.8410 H         1 <0>         0.1405
     47 H16        -0.5528   -8.7720    5.3596 H         1 <0>         0.1483
     48 H17         2.1074  -10.7344    2.6638 H         1 <0>         0.1499
     49 H18         1.9839   -8.8112    1.1331 H         1 <0>         0.1386
     50 H19        -1.4281  -11.8221    4.7503 H         1 <0>         0.1407
     51 H20        -0.3183  -12.6411    3.6252 H         1 <0>         0.1452
     52 H21         0.4826  -14.0687    5.5429 H         1 <0>         0.1009
     53 H22        -2.3217  -14.0666    4.4439 H         1 <0>         0.0835
     54 H23        -1.1038  -15.3859    4.4577 H         1 <0>         0.0909
     55 H24        -3.2080  -15.4396    6.2123 H         1 <0>         0.0889
     56 H25        -1.5720  -15.9478    6.7543 H         1 <0>         0.0844
     57 H26        -2.9292  -13.2151    7.0752 H         1 <0>         0.0648
     58 H27        -2.0537  -14.1698    8.3100 H         1 <0>         0.0940
     59 H28        -0.4926   -0.5188   -1.9925 H         1 <0>         0.4662
@<TRIPOS>BOND
     1    1    2 1
     2    1   32 1
     3    1   33 1
     4    1   34 1
     5    2    6 1
     6    2    3 2
     7    3    4 1
     8    3   59 1
     9    4    5 2
    10    4   35 1
    11    5    6 1
    12    5   10 1
    13    6    7 1
    14    7    8 1
    15    7    9 1
    16    7   36 1
    17    8   37 1
    18    8   38 1
    19    8   39 1
    20    9   40 1
    21    9   41 1
    22    9   42 1
    23   10   15 ar
    24   10   11 ar
    25   11   12 ar
    26   11   43 1
    27   12   13 ar
    28   12   44 1
    29   13   14 ar
    30   14   15 ar
    31   14   16 1
    32   16   17 1
    33   16   45 1
    34   17   22 ar
    35   17   18 ar
    36   18   19 ar
    37   18   46 1
    38   19   20 ar
    39   19   47 1
    40   20   21 ar
    41   20   23 1
    42   21   22 ar
    43   21   48 1
    44   22   49 1
    45   23   24 2
    46   23   25 2
    47   23   26 1
    48   26   27 1
    49   26   50 1
    50   26   51 1
    51   27   31 1
    52   27   28 1
    53   27   52 1
    54   28   29 1
    55   28   53 1
    56   28   54 1
    57   29   30 1
    58   29   55 1
    59   29   56 1
    60   30   31 1
    61   30   57 1
    62   30   58 1
@<TRIPOS>MOLECULE
CHEMBL515839
   58    61     0     0     0
SMALL
USER_CHARGES

@<TRIPOS>ATOM
      1 C1         -0.3035    1.5916   -0.2007 C.3       1 <0>        -0.0992
      2 C2         -0.2204    0.0919   -0.0786 C.2       1 <0>         0.2413
      3 N1         -0.3374   -0.7571   -1.0652 N.2       1 <0>        -0.4953
      4 C3         -0.2111   -2.0037   -0.6007 C.2       1 <0>         0.0610
      5 C4         -0.0049   -1.9296    0.7438 C.2       1 <0>        -0.0227
      6 N2         -0.0076   -0.5897    1.0654 N.pl3     1 <0>        -0.4383
      7 C5          0.1821   -0.0141    2.3992 C.3       1 <0>         0.1185
      8 C6          1.6270   -0.2374    2.8501 C.3       1 <0>        -0.1794
      9 C7         -0.1118    1.4867    2.3535 C.3       1 <0>        -0.1818
     10 C8          0.1887   -3.0611    1.6722 C.ar      1 <0>         0.3083
     11 C9          0.2594   -2.8437    3.0541 C.ar      1 <0>        -0.2980
     12 C10         0.4409   -3.9342    3.8831 C.ar      1 <0>         0.1982
     13 N3          0.5419   -5.1433    3.3517 N.ar      1 <0>        -0.5587
     14 C11         0.4716   -5.3213    2.0404 C.ar      1 <0>         0.5685
     15 N4          0.2934   -4.3069    1.2091 N.ar      1 <0>        -0.5508
     16 N5          0.5826   -6.6032    1.5267 N.pl3     1 <0>        -0.6388
     17 C12         0.6504   -7.6995    2.3917 C.ar      1 <0>         0.2252
     18 C13        -0.0655   -7.6923    3.5819 C.ar      1 <0>        -0.1365
     19 C14         0.0033   -8.7771    4.4339 C.ar      1 <0>        -0.0013
     20 C15         0.7838   -9.8696    4.1031 C.ar      1 <0>        -0.6837
     21 C16         1.4982   -9.8798    2.9190 C.ar      1 <0>        -0.0006
     22 C17         1.4292   -8.8007    2.0599 C.ar      1 <0>        -0.1698
     23 S1          0.8688  -11.2515    5.1929 S.o2      1 <0>         2.5038
     24 O1          2.1265  -11.8531    4.9182 O.2       1 <0>        -0.9385
     25 O2          0.5870  -10.7169    6.4790 O.2       1 <0>        -0.9197
     26 C18        -0.4767  -12.3467    4.6629 C.3       1 <0>        -0.6256
     27 C19        -0.4985  -13.5936    5.5492 C.3       1 <0>         0.0863
     28 C20        -1.5651  -14.5837    5.0340 C.3       1 <0>        -0.1433
     29 C21        -2.1724  -15.1305    6.3547 C.3       1 <0>        -0.1591
     30 C22        -2.0831  -13.8767    7.2607 C.3       1 <0>         0.0477
     31 O3         -0.8548  -13.2317    6.8885 O.3       1 <0>        -0.3703
     32 H1          0.7025    2.0103   -0.2277 H         1 <0>         0.0847
     33 H2         -0.8306    1.8528   -1.1183 H         1 <0>         0.0906
     34 H3         -0.8426    1.9966    0.6558 H         1 <0>         0.1023
     35 H4         -0.2638   -2.9092   -1.1870 H         1 <0>         0.1811
     36 H5         -0.4967   -0.4961    3.1028 H         1 <0>         0.1018
     37 H6          2.3079    0.1722    2.1040 H         1 <0>         0.0682
     38 H7          1.7910    0.2623    3.8049 H         1 <0>         0.0842
     39 H8          1.8115   -1.3058    2.9627 H         1 <0>         0.0739
     40 H9         -1.1588    1.6442    2.0944 H         1 <0>         0.0773
     41 H10         0.0910    1.9265    3.3300 H         1 <0>         0.0837
     42 H11         0.5230    1.9586    1.6036 H         1 <0>         0.0871
     43 H12         0.1744   -1.8473    3.4620 H         1 <0>         0.1560
     44 H13         0.5001   -3.8019    4.9534 H         1 <0>         0.1755
     45 H14         0.6132   -6.7400    0.5669 H         1 <0>         0.4284
     46 H15        -0.6750   -6.8392    3.8411 H         1 <0>         0.1422
     47 H16        -0.5528   -8.7720    5.3597 H         1 <0>         0.1448
     48 H17         2.1074  -10.7343    2.6640 H         1 <0>         0.1459
     49 H18         1.9839   -8.8112    1.1333 H         1 <0>         0.1368
     50 H19        -1.4281  -11.8220    4.7505 H         1 <0>         0.1407
     51 H20        -0.3183  -12.6410    3.6254 H         1 <0>         0.1449
     52 H21         0.4826  -14.0686    5.5431 H         1 <0>         0.1000
     53 H22        -2.3217  -14.0665    4.4441 H         1 <0>         0.0840
     54 H23        -1.1038  -15.3858    4.4579 H         1 <0>         0.0900
     55 H24        -3.2080  -15.4395    6.2125 H         1 <0>         0.0879
     56 H25        -1.5720  -15.9476    6.7545 H         1 <0>         0.0832
     57 H26        -2.9292  -13.2150    7.0754 H         1 <0>         0.0649
     58 H27        -2.0537  -14.1696    8.3102 H         1 <0>         0.0927
@<TRIPOS>BOND
     1    1    2 1
     2    1   32 1
     3    1   33 1
     4    1   34 1
     5    2    6 1
     6    2    3 2
     7    3    4 1
     8    4    5 2
     9    4   35 1
    10    5    6 1
    11    5   10 1
    12    6    7 1
    13    7    8 1
    14    7    9 1
    15    7   36 1
    16    8   37 1
    17    8   38 1
    18    8   39 1
    19    9   40 1
    20    9   41 1
    21    9   42 1
    22   10   15 ar
    23   10   11 ar
    24   11   12 ar
    25   11   43 1
    26   12   13 ar
    27   12   44 1
    28   13   14 ar
    29   14   15 ar
    30   14   16 1
    31   16   17 1
    32   16   45 1
    33   17   22 ar
    34   17   18 ar
    35   18   19 ar
    36   18   46 1
    37   19   20 ar
    38   19   47 1
    39   20   21 ar
    40   20   23 1
    41   21   22 ar
    42   21   48 1
    43   22   49 1
    44   23   24 2
    45   23   25 2
    46   23   26 1
    47   26   27 1
    48   26   50 1
    49   26   51 1
    50   27   31 1
    51   27   28 1
    52   27   52 1
    53   28   29 1
    54   28   53 1
    55   28   54 1
    56   29   30 1
    57   29   55 1
    58   29   56 1
    59   30   31 1
    60   30   57 1
    61   30   58 1
@<TRIPOS>MOLECULE
CHEMBL515839
   59    62     0     0     0
SMALL
USER_CHARGES

@<TRIPOS>ATOM
      1 C1         -0.3035    1.5916   -0.2006 C.3       1 <0>        -0.1416
      2 C2         -0.2204    0.0919   -0.0785 C.cat     1 <0>         0.3299
      3 N1         -0.3374   -0.7570   -1.0651 N.pl3     1 <0>        -0.4778
      4 C3         -0.2111   -2.0037   -0.6007 C.2       1 <0>         0.0661
      5 C4         -0.0049   -1.9296    0.7438 C.2       1 <0>         0.0811
      6 N2         -0.0076   -0.5897    1.0654 N.pl3     1 <0>        -0.3913
      7 C5          0.1821   -0.0142    2.3992 C.3       1 <0>         0.1096
      8 C6          1.6270   -0.2375    2.8502 C.3       1 <0>        -0.1882
      9 C7         -0.1118    1.4866    2.3536 C.3       1 <0>        -0.1960
     10 C8          0.1887   -3.0612    1.6722 C.ar      1 <0>         0.2669
     11 C9          0.2594   -2.8438    3.0541 C.ar      1 <0>        -0.2824
     12 C10         0.4409   -3.9342    3.8831 C.ar      1 <0>         0.2146
     13 N3          0.5419   -5.1434    3.3517 N.ar      1 <0>        -0.5353
     14 C11         0.4716   -5.3214    2.0403 C.ar      1 <0>         0.5805
     15 N4          0.2934   -4.3070    1.2090 N.ar      1 <0>        -0.5453
     16 N5          0.5825   -6.6032    1.5266 N.pl3     1 <0>        -0.6307
     17 C12         0.6504   -7.6995    2.3916 C.ar      1 <0>         0.2072
     18 C13        -0.0655   -7.6924    3.5819 C.ar      1 <0>        -0.1344
     19 C14         0.0033   -8.7771    4.4338 C.ar      1 <0>        -0.0026
     20 C15         0.7838   -9.8697    4.1029 C.ar      1 <0>        -0.6750
     21 C16         1.4982   -9.8799    2.9189 C.ar      1 <0>         0.0027
     22 C17         1.4292   -8.8007    2.0598 C.ar      1 <0>        -0.1618
     23 S1          0.8688  -11.2516    5.1927 S.o2      1 <0>         2.5017
     24 O1          2.1265  -11.8532    4.9180 O.2       1 <0>        -0.9141
     25 O2          0.5870  -10.7171    6.4788 O.2       1 <0>        -0.9343
     26 C18        -0.4767  -12.3467    4.6627 C.3       1 <0>        -0.6107
     27 C19        -0.4985  -13.5937    5.5490 C.3       1 <0>         0.0834
     28 C20        -1.5958  -14.5762    5.0681 C.3       1 <0>        -0.1424
     29 C21        -1.0419  -15.9235    5.6067 C.3       1 <0>        -0.1592
     30 C22         0.4836  -15.7269    5.4740 C.3       1 <0>         0.0494
     31 O3          0.7355  -14.3179    5.4211 O.3       1 <0>        -0.3754
     32 H1          0.7025    2.0103   -0.2277 H         1 <0>         0.1256
     33 H2         -0.8306    1.8528   -1.1182 H         1 <0>         0.1148
     34 H3         -0.8426    1.9966    0.6559 H         1 <0>         0.1416
     35 H4         -0.2638   -2.9091   -1.1870 H         1 <0>         0.2326
     36 H5         -0.4967   -0.4961    3.1028 H         1 <0>         0.1326
     37 H6          1.7910    0.2622    3.8049 H         1 <0>         0.1069
     38 H7          1.8115   -1.3058    2.9628 H         1 <0>         0.0828
     39 H8          2.3079    0.1722    2.1040 H         1 <0>         0.0772
     40 H9         -1.1588    1.6441    2.0945 H         1 <0>         0.0863
     41 H10         0.0910    1.9264    3.3301 H         1 <0>         0.1082
     42 H11         0.5231    1.9586    1.6037 H         1 <0>         0.0925
     43 H12         0.1744   -1.8474    3.4620 H         1 <0>         0.1599
     44 H13         0.5001   -3.8020    4.9534 H         1 <0>         0.1876
     45 H14         0.6132   -6.7400    0.5668 H         1 <0>         0.4306
     46 H15        -0.6750   -6.8393    3.8410 H         1 <0>         0.1405
     47 H16        -0.5528   -8.7720    5.3596 H         1 <0>         0.1477
     48 H17         2.1074  -10.7344    2.6638 H         1 <0>         0.1509
     49 H18         1.9839   -8.8112    1.1331 H         1 <0>         0.1387
     50 H19        -1.4281  -11.8221    4.7503 H         1 <0>         0.1468
     51 H20        -0.3183  -12.6411    3.6252 H         1 <0>         0.1432
     52 H21        -0.6675  -13.3150    6.5891 H         1 <0>         0.0927
     53 H22        -2.5598  -14.3396    5.5186 H         1 <0>         0.0903
     54 H23        -1.6646  -14.5865    3.9803 H         1 <0>         0.0848
     55 H24        -1.3250  -16.0703    6.6490 H         1 <0>         0.0823
     56 H25        -1.3808  -16.7563    4.9905 H         1 <0>         0.0885
     57 H26         0.9887  -16.1607    6.3371 H         1 <0>         0.0769
     58 H27         0.8393  -16.2008    4.5591 H         1 <0>         0.0764
     59 H28        -0.4926   -0.5188   -1.9925 H         1 <0>         0.4662
@<TRIPOS>BOND
     1    1    2 1
     2    1   32 1
     3    1   33 1
     4    1   34 1
     5    2    6 1
     6    2    3 2
     7    3    4 1
     8    3   59 1
     9    4    5 2
    10    4   35 1
    11    5    6 1
    12    5   10 1
    13    6    7 1
    14    7    8 1
    15    7    9 1
    16    7   36 1
    17    8   37 1
    18    8   38 1
    19    8   39 1
    20    9   40 1
    21    9   41 1
    22    9   42 1
    23   10   15 ar
    24   10   11 ar
    25   11   12 ar
    26   11   43 1
    27   12   13 ar
    28   12   44 1
    29   13   14 ar
    30   14   15 ar
    31   14   16 1
    32   16   17 1
    33   16   45 1
    34   17   22 ar
    35   17   18 ar
    36   18   19 ar
    37   18   46 1
    38   19   20 ar
    39   19   47 1
    40   20   21 ar
    41   20   23 1
    42   21   22 ar
    43   21   48 1
    44   22   49 1
    45   23   24 2
    46   23   25 2
    47   23   26 1
    48   26   27 1
    49   26   50 1
    50   26   51 1
    51   27   31 1
    52   27   28 1
    53   27   52 1
    54   28   29 1
    55   28   53 1
    56   28   54 1
    57   29   30 1
    58   29   55 1
    59   29   56 1
    60   30   31 1
    61   30   57 1
    62   30   58 1
@<TRIPOS>MOLECULE
CHEMBL515839
   58    61     0     0     0
SMALL
USER_CHARGES

@<TRIPOS>ATOM
      1 C1         -0.3035    1.5916   -0.2007 C.3       1 <0>        -0.0992
      2 C2         -0.2204    0.0919   -0.0786 C.2       1 <0>         0.2413
      3 N1         -0.3374   -0.7571   -1.0652 N.2       1 <0>        -0.4953
      4 C3         -0.2111   -2.0037   -0.6007 C.2       1 <0>         0.0610
      5 C4         -0.0049   -1.9296    0.7438 C.2       1 <0>        -0.0228
      6 N2         -0.0076   -0.5897    1.0654 N.pl3     1 <0>        -0.4384
      7 C5          0.1821   -0.0141    2.3992 C.3       1 <0>         0.1185
      8 C6          1.6270   -0.2374    2.8501 C.3       1 <0>        -0.1794
      9 C7         -0.1118    1.4867    2.3535 C.3       1 <0>        -0.1818
     10 C8          0.1887   -3.0611    1.6722 C.ar      1 <0>         0.3084
     11 C9          0.2594   -2.8437    3.0541 C.ar      1 <0>        -0.2981
     12 C10         0.4409   -3.9342    3.8831 C.ar      1 <0>         0.1981
     13 N3          0.5419   -5.1433    3.3517 N.ar      1 <0>        -0.5589
     14 C11         0.4716   -5.3213    2.0404 C.ar      1 <0>         0.5686
     15 N4          0.2934   -4.3069    1.2091 N.ar      1 <0>        -0.5508
     16 N5          0.5826   -6.6032    1.5267 N.pl3     1 <0>        -0.6388
     17 C12         0.6504   -7.6995    2.3917 C.ar      1 <0>         0.2253
     18 C13        -0.0655   -7.6923    3.5819 C.ar      1 <0>        -0.1366
     19 C14         0.0033   -8.7771    4.4339 C.ar      1 <0>        -0.0033
     20 C15         0.7838   -9.8696    4.1031 C.ar      1 <0>        -0.6841
     21 C16         1.4982   -9.8798    2.9190 C.ar      1 <0>         0.0017
     22 C17         1.4292   -8.8007    2.0599 C.ar      1 <0>        -0.1696
     23 S1          0.8688  -11.2515    5.1929 S.o2      1 <0>         2.5047
     24 O1          2.1265  -11.8531    4.9182 O.2       1 <0>        -0.9184
     25 O2          0.5870  -10.7169    6.4790 O.2       1 <0>        -0.9376
     26 C18        -0.4767  -12.3467    4.6629 C.3       1 <0>        -0.6133
     27 C19        -0.4985  -13.5936    5.5492 C.3       1 <0>         0.0842
     28 C20        -1.5958  -14.5761    5.0683 C.3       1 <0>        -0.1427
     29 C21        -1.0419  -15.9234    5.6069 C.3       1 <0>        -0.1589
     30 C22         0.4836  -15.7268    5.4743 C.3       1 <0>         0.0496
     31 O3          0.7355  -14.3178    5.4213 O.3       1 <0>        -0.3746
     32 H1          0.7025    2.0103   -0.2277 H         1 <0>         0.0847
     33 H2         -0.8306    1.8528   -1.1183 H         1 <0>         0.0906
     34 H3         -0.8426    1.9966    0.6558 H         1 <0>         0.1023
     35 H4         -0.2638   -2.9092   -1.1870 H         1 <0>         0.1811
     36 H5         -0.4967   -0.4961    3.1028 H         1 <0>         0.1017
     37 H6          2.3079    0.1722    2.1040 H         1 <0>         0.0682
     38 H7          1.7910    0.2623    3.8049 H         1 <0>         0.0841
     39 H8          1.8115   -1.3058    2.9627 H         1 <0>         0.0739
     40 H9         -1.1588    1.6442    2.0944 H         1 <0>         0.0773
     41 H10         0.0910    1.9265    3.3300 H         1 <0>         0.0837
     42 H11         0.5230    1.9586    1.6036 H         1 <0>         0.0871
     43 H12         0.1744   -1.8473    3.4620 H         1 <0>         0.1560
     44 H13         0.5001   -3.8019    4.9534 H         1 <0>         0.1755
     45 H14         0.6132   -6.7400    0.5669 H         1 <0>         0.4284
     46 H15        -0.6750   -6.8392    3.8411 H         1 <0>         0.1422
     47 H16        -0.5528   -8.7720    5.3597 H         1 <0>         0.1441
     48 H17         2.1074  -10.7343    2.6640 H         1 <0>         0.1469
     49 H18         1.9839   -8.8112    1.1333 H         1 <0>         0.1369
     50 H19        -1.4281  -11.8220    4.7505 H         1 <0>         0.1469
     51 H20        -0.3183  -12.6410    3.6254 H         1 <0>         0.1428
     52 H21        -0.6675  -13.3149    6.5893 H         1 <0>         0.0920
     53 H22        -2.5598  -14.3395    5.5188 H         1 <0>         0.0899
     54 H23        -1.6646  -14.5864    3.9805 H         1 <0>         0.0851
     55 H24        -1.3249  -16.0702    6.6492 H         1 <0>         0.0813
     56 H25        -1.3808  -16.7562    4.9908 H         1 <0>         0.0873
     57 H26         0.9887  -16.1606    6.3373 H         1 <0>         0.0755
     58 H27         0.8393  -16.2007    4.5594 H         1 <0>         0.0755
@<TRIPOS>BOND
     1    1    2 1
     2    1   32 1
     3    1   33 1
     4    1   34 1
     5    2    6 1
     6    2    3 2
     7    3    4 1
     8    4    5 2
     9    4   35 1
    10    5    6 1
    11    5   10 1
    12    6    7 1
    13    7    8 1
    14    7    9 1
    15    7   36 1
    16    8   37 1
    17    8   38 1
    18    8   39 1
    19    9   40 1
    20    9   41 1
    21    9   42 1
    22   10   15 ar
    23   10   11 ar
    24   11   12 ar
    25   11   43 1
    26   12   13 ar
    27   12   44 1
    28   13   14 ar
    29   14   15 ar
    30   14   16 1
    31   16   17 1
    32   16   45 1
    33   17   22 ar
    34   17   18 ar
    35   18   19 ar
    36   18   46 1
    37   19   20 ar
    38   19   47 1
    39   20   21 ar
    40   20   23 1
    41   21   22 ar
    42   21   48 1
    43   22   49 1
    44   23   24 2
    45   23   25 2
    46   23   26 1
    47   26   27 1
    48   26   50 1
    49   26   51 1
    50   27   31 1
    51   27   28 1
    52   27   52 1
    53   28   29 1
    54   28   53 1
    55   28   54 1
    56   29   30 1
    57   29   55 1
    58   29   56 1
    59   30   31 1
    60   30   57 1
    61   30   58 1
@<TRIPOS>MOLECULE
CHEMBL457888
   67    70     0     0     0
SMALL
USER_CHARGES

@<TRIPOS>ATOM
      1 C1          1.5505    1.4300   -0.4915 C.3       1 <0>        -0.1417
      2 C2          1.2606   -0.0379   -0.3120 C.cat     1 <0>         0.3301
      3 N1          0.5139   -0.7655   -1.0999 N.pl3     1 <0>        -0.4779
      4 C3          0.4740   -2.0215   -0.6451 C.2       1 <0>         0.0664
      5 C4          1.2341   -2.0813    0.4838 C.2       1 <0>         0.0807
      6 N2          1.7348   -0.8132    0.6843 N.pl3     1 <0>        -0.3914
      7 C5          2.6142   -0.3870    1.7757 C.3       1 <0>         0.1096
      8 C6          3.9923   -1.0280    1.6001 C.3       1 <0>        -0.1882
      9 C7          2.7537    1.1365    1.7530 C.3       1 <0>        -0.1960
     10 C8          1.4778   -3.2709    1.3234 C.ar      1 <0>         0.2672
     11 C9          2.1757   -3.1576    2.5327 C.ar      1 <0>        -0.2819
     12 C10         2.3788   -4.2990    3.2844 C.ar      1 <0>         0.2146
     13 N3          1.9116   -5.4576    2.8437 N.ar      1 <0>        -0.5355
     14 C11         1.2544   -5.5371    1.6957 C.ar      1 <0>         0.5803
     15 N4          1.0323   -4.4694    0.9457 N.ar      1 <0>        -0.5451
     16 N5          0.7833   -6.7691    1.2719 N.pl3     1 <0>        -0.6311
     17 C12         0.9014   -7.8865    2.1039 C.ar      1 <0>         0.2088
     18 C13         0.7801   -7.7453    3.4804 C.ar      1 <0>        -0.1342
     19 C14         0.8968   -8.8512    4.2994 C.ar      1 <0>        -0.0010
     20 C15         1.1340  -10.0981    3.7504 C.ar      1 <0>        -0.6728
     21 C16         1.2556  -10.2420    2.3805 C.ar      1 <0>         0.0017
     22 C17         1.1343   -9.1412    1.5554 C.ar      1 <0>        -0.1619
     23 S1          1.2821  -11.5064    4.7989 S.o2      1 <0>         2.4965
     24 O1          2.0911  -12.4184    4.0689 O.2       1 <0>        -0.9318
     25 O2          1.7219  -10.9856    6.0457 O.2       1 <0>        -0.9304
     26 C18        -0.4058  -12.1529    4.9523 C.3       1 <0>        -0.6060
     27 C19        -0.3980  -13.3910    5.8512 C.3       1 <0>        -0.1138
     28 C20        -1.8216  -13.9364    5.9806 C.3       1 <0>         0.0636
     29 N6         -1.8141  -15.1251    6.8437 N.3       1 <0>        -0.5393
     30 C21        -1.0793  -16.2304    6.2115 C.3       1 <0>         0.0097
     31 C22        -1.0450  -17.4259    7.1674 C.3       1 <0>         0.0616
     32 O3         -2.3837  -17.7927    7.5121 O.3       1 <0>        -0.3842
     33 C23        -3.1280  -16.7398    8.1306 C.3       1 <0>         0.0620
     34 C24        -3.1834  -15.5374    7.1845 C.3       1 <0>         0.0175
     35 H1          2.5257    1.5528   -0.9627 H         1 <0>         0.1257
     36 H2          0.7829    1.8773   -1.1231 H         1 <0>         0.1149
     37 H3          1.5525    1.9216    0.4813 H         1 <0>         0.1417
     38 H4         -0.0655   -2.8430   -1.0927 H         1 <0>         0.2326
     39 H5          2.1874   -0.6986    2.7290 H         1 <0>         0.1326
     40 H6          4.3833   -0.7840    0.6124 H         1 <0>         0.0773
     41 H7          4.6703   -0.6467    2.3637 H         1 <0>         0.1070
     42 H8          3.9051   -2.1100    1.6993 H         1 <0>         0.0827
     43 H9          1.7822    1.5931    1.9419 H         1 <0>         0.0864
     44 H10         3.4579    1.4484    2.5242 H         1 <0>         0.1083
     45 H11         3.1204    1.4532    0.7766 H         1 <0>         0.0926
     46 H12         2.5466   -2.2008    2.8693 H         1 <0>         0.1601
     47 H13         2.9132   -4.2472    4.2215 H         1 <0>         0.1878
     48 H14         0.3716   -6.8564    0.3980 H         1 <0>         0.4307
     49 H15         0.5953   -6.7717    3.9098 H         1 <0>         0.1409
     50 H16         0.8030   -8.7420    5.3697 H         1 <0>         0.1483
     51 H17         1.4415  -11.2171    1.9550 H         1 <0>         0.1500
     52 H18         1.2250   -9.2550    0.4853 H         1 <0>         0.1388
     53 H19        -1.0488  -11.3897    5.3907 H         1 <0>         0.1381
     54 H20        -0.7827  -12.4226    3.9657 H         1 <0>         0.1361
     55 H21         0.2450  -14.1542    5.4128 H         1 <0>         0.0826
     56 H22        -0.0211  -13.1213    6.8378 H         1 <0>         0.0932
     57 H23        -2.4646  -13.1731    6.4190 H         1 <0>         0.0825
     58 H24        -2.1985  -14.2060    4.9940 H         1 <0>         0.0418
     59 H25        -1.5795  -16.5181    5.2868 H         1 <0>         0.0463
     60 H26        -0.0607  -15.9113    5.9911 H         1 <0>         0.0905
     61 H27        -0.5510  -18.2669    6.6808 H         1 <0>         0.1009
     62 H28        -0.4981  -17.1544    8.0703 H         1 <0>         0.0623
     63 H29        -4.1405  -17.0846    8.3407 H         1 <0>         0.1003
     64 H30        -2.6416  -16.4483    9.0615 H         1 <0>         0.0619
     65 H31        -3.7007  -14.7124    7.6743 H         1 <0>         0.0880
     66 H32        -3.7172  -15.8140    6.2753 H         1 <0>         0.0448
     67 H33         0.0580   -0.4432   -1.8931 H         1 <0>         0.4663
@<TRIPOS>BOND
     1    1    2 1
     2    1   35 1
     3    1   36 1
     4    1   37 1
     5    2    6 1
     6    2    3 2
     7    3    4 1
     8    3   67 1
     9    4    5 2
    10    4   38 1
    11    5    6 1
    12    5   10 1
    13    6    7 1
    14    7    8 1
    15    7    9 1
    16    7   39 1
    17    8   40 1
    18    8   41 1
    19    8   42 1
    20    9   43 1
    21    9   44 1
    22    9   45 1
    23   10   15 ar
    24   10   11 ar
    25   11   12 ar
    26   11   46 1
    27   12   13 ar
    28   12   47 1
    29   13   14 ar
    30   14   15 ar
    31   14   16 1
    32   16   17 1
    33   16   48 1
    34   17   22 ar
    35   17   18 ar
    36   18   19 ar
    37   18   49 1
    38   19   20 ar
    39   19   50 1
    40   20   21 ar
    41   20   23 1
    42   21   22 ar
    43   21   51 1
    44   22   52 1
    45   23   24 2
    46   23   25 2
    47   23   26 1
    48   26   27 1
    49   26   53 1
    50   26   54 1
    51   27   28 1
    52   27   55 1
    53   27   56 1
    54   28   29 1
    55   28   57 1
    56   28   58 1
    57   29   34 1
    58   29   30 1
    59   30   31 1
    60   30   59 1
    61   30   60 1
    62   31   32 1
    63   31   61 1
    64   31   62 1
    65   32   33 1
    66   33   34 1
    67   33   63 1
    68   33   64 1
    69   34   65 1
    70   34   66 1
@<TRIPOS>MOLECULE
CHEMBL457888
   68    71     0     0     0
SMALL
USER_CHARGES

@<TRIPOS>ATOM
      1 C1          1.5505    1.4300   -0.4915 C.3       1 <0>        -0.1433
      2 C2          1.2606   -0.0379   -0.3120 C.cat     1 <0>         0.3346
      3 N1          0.5139   -0.7655   -1.0999 N.pl3     1 <0>        -0.4782
      4 C3          0.4740   -2.0215   -0.6451 C.2       1 <0>         0.0691
      5 C4          1.2341   -2.0813    0.4838 C.2       1 <0>         0.0753
      6 N2          1.7348   -0.8132    0.6843 N.pl3     1 <0>        -0.3919
      7 C5          2.6142   -0.3870    1.7757 C.3       1 <0>         0.1097
      8 C6          3.9923   -1.0280    1.6001 C.3       1 <0>        -0.1882
      9 C7          2.7537    1.1365    1.7530 C.3       1 <0>        -0.1969
     10 C8          1.4778   -3.2709    1.3234 C.ar      1 <0>         0.2710
     11 C9          2.1757   -3.1576    2.5327 C.ar      1 <0>        -0.2773
     12 C10         2.3788   -4.2990    3.2844 C.ar      1 <0>         0.2140
     13 N3          1.9116   -5.4576    2.8437 N.ar      1 <0>        -0.5387
     14 C11         1.2544   -5.5371    1.6957 C.ar      1 <0>         0.5776
     15 N4          1.0323   -4.4694    0.9457 N.ar      1 <0>        -0.5427
     16 N5          0.7833   -6.7691    1.2719 N.pl3     1 <0>        -0.6336
     17 C12         0.9014   -7.8865    2.1039 C.ar      1 <0>         0.2221
     18 C13         0.7801   -7.7453    3.4804 C.ar      1 <0>        -0.1344
     19 C14         0.8968   -8.8512    4.2994 C.ar      1 <0>        -0.0004
     20 C15         1.1340  -10.0981    3.7504 C.ar      1 <0>        -0.6808
     21 C16         1.2556  -10.2420    2.3805 C.ar      1 <0>         0.0030
     22 C17         1.1343   -9.1412    1.5554 C.ar      1 <0>        -0.1623
     23 S1          1.2821  -11.5064    4.7989 S.o2      1 <0>         2.5028
     24 O1          2.0911  -12.4184    4.0689 O.2       1 <0>        -0.9228
     25 O2          1.7219  -10.9855    6.0457 O.2       1 <0>        -0.9228
     26 C18        -0.4058  -12.1529    4.9523 C.3       1 <0>        -0.6227
     27 C19        -0.3980  -13.3910    5.8512 C.3       1 <0>        -0.1461
     28 C20        -1.8216  -13.9364    5.9806 C.3       1 <0>        -0.0007
     29 N6         -1.8141  -15.1251    6.8437 N.4       1 <0>        -0.3883
     30 C21        -1.0459  -16.1966    6.1950 C.3       1 <0>        -0.0531
     31 C22        -1.0393  -17.4339    7.0963 C.3       1 <0>         0.0355
     32 O3         -2.3874  -17.8363    7.3546 O.3       1 <0>        -0.3550
     33 C23        -3.1836  -16.8168    7.9650 C.3       1 <0>         0.0350
     34 C24        -3.1941  -15.5784    7.0653 C.3       1 <0>        -0.0435
     35 H1          2.5257    1.5528   -0.9627 H         1 <0>         0.1271
     36 H2          0.7829    1.8773   -1.1231 H         1 <0>         0.1162
     37 H3          1.5525    1.9216    0.4813 H         1 <0>         0.1425
     38 H4         -0.0655   -2.8430   -1.0927 H         1 <0>         0.2323
     39 H5          2.1874   -0.6986    2.7290 H         1 <0>         0.1319
     40 H6          3.9051   -2.1100    1.6993 H         1 <0>         0.0810
     41 H7          4.3833   -0.7840    0.6124 H         1 <0>         0.0783
     42 H8          4.6703   -0.6467    2.3637 H         1 <0>         0.1077
     43 H9          1.7822    1.5931    1.9419 H         1 <0>         0.0870
     44 H10         3.4579    1.4484    2.5242 H         1 <0>         0.1091
     45 H11         3.1204    1.4532    0.7766 H         1 <0>         0.0934
     46 H12         2.5466   -2.2008    2.8693 H         1 <0>         0.1622
     47 H13         2.9132   -4.2472    4.2215 H         1 <0>         0.1888
     48 H14         0.3716   -6.8564    0.3980 H         1 <0>         0.4323
     49 H15         0.5953   -6.7717    3.9098 H         1 <0>         0.1436
     50 H16         0.8030   -8.7420    5.3697 H         1 <0>         0.1475
     51 H17         1.4415  -11.2171    1.9550 H         1 <0>         0.1497
     52 H18         1.2250   -9.2550    0.4853 H         1 <0>         0.1416
     53 H19        -1.0488  -11.3897    5.3907 H         1 <0>         0.1480
     54 H20        -0.7827  -12.4226    3.9657 H         1 <0>         0.1481
     55 H21         0.2450  -14.1542    5.4128 H         1 <0>         0.1053
     56 H22        -0.0211  -13.1213    6.8378 H         1 <0>         0.1069
     57 H23        -2.4646  -13.1731    6.4190 H         1 <0>         0.1390
     58 H24        -2.1985  -14.2060    4.9940 H         1 <0>         0.1372
     59 H25        -1.5056  -16.4459    5.2386 H         1 <0>         0.1424
     60 H26        -0.0219  -15.8614    6.0302 H         1 <0>         0.1445
     61 H27        -0.5067  -18.2441    6.5983 H         1 <0>         0.1443
     62 H28        -0.5438  -17.1960    8.0375 H         1 <0>         0.0833
     63 H29        -4.2028  -17.1804    8.0957 H         1 <0>         0.1436
     64 H30        -2.7614  -16.5578    8.9359 H         1 <0>         0.0827
     65 H31        -3.7648  -14.7842    7.5466 H         1 <0>         0.1439
     66 H32        -3.6530  -15.8278    6.1086 H         1 <0>         0.1402
     67 H33         0.0580   -0.4432   -1.8931 H         1 <0>         0.4672
     68 H34        -1.3891  -14.8951    7.7294 H         1 <0>         0.4253
@<TRIPOS>BOND
     1    1    2 1
     2    1   35 1
     3    1   36 1
     4    1   37 1
     5    2    6 1
     6    2    3 2
     7    3    4 1
     8    3   67 1
     9    4    5 2
    10    4   38 1
    11    5    6 1
    12    5   10 1
    13    6    7 1
    14    7    8 1
    15    7    9 1
    16    7   39 1
    17    8   40 1
    18    8   41 1
    19    8   42 1
    20    9   43 1
    21    9   44 1
    22    9   45 1
    23   10   15 ar
    24   10   11 ar
    25   11   12 ar
    26   11   46 1
    27   12   13 ar
    28   12   47 1
    29   13   14 ar
    30   14   15 ar
    31   14   16 1
    32   16   17 1
    33   16   48 1
    34   17   22 ar
    35   17   18 ar
    36   18   19 ar
    37   18   49 1
    38   19   20 ar
    39   19   50 1
    40   20   21 ar
    41   20   23 1
    42   21   22 ar
    43   21   51 1
    44   22   52 1
    45   23   24 2
    46   23   25 2
    47   23   26 1
    48   26   27 1
    49   26   53 1
    50   26   54 1
    51   27   28 1
    52   27   55 1
    53   27   56 1
    54   28   29 1
    55   28   57 1
    56   28   58 1
    57   29   34 1
    58   29   30 1
    59   29   68 1
    60   30   31 1
    61   30   59 1
    62   30   60 1
    63   31   32 1
    64   31   61 1
    65   31   62 1
    66   32   33 1
    67   33   34 1
    68   33   63 1
    69   33   64 1
    70   34   65 1
    71   34   66 1
@<TRIPOS>MOLECULE
CHEMBL457888
   66    69     0     0     0
SMALL
USER_CHARGES

@<TRIPOS>ATOM
      1 C1          1.5504    1.4300   -0.4916 C.3       1 <0>        -0.0993
      2 C2          1.2606   -0.0379   -0.3120 C.2       1 <0>         0.2417
      3 N1          0.5139   -0.7655   -1.0999 N.2       1 <0>        -0.4953
      4 C3          0.4740   -2.0215   -0.6451 C.2       1 <0>         0.0613
      5 C4          1.2341   -2.0812    0.4837 C.2       1 <0>        -0.0231
      6 N2          1.7348   -0.8132    0.6842 N.pl3     1 <0>        -0.4383
      7 C5          2.6142   -0.3869    1.7756 C.3       1 <0>         0.1184
      8 C6          3.9923   -1.0279    1.6001 C.3       1 <0>        -0.1794
      9 C7          2.7537    1.1365    1.7529 C.3       1 <0>        -0.1818
     10 C8          1.4778   -3.2709    1.3234 C.ar      1 <0>         0.3087
     11 C9          2.1757   -3.1575    2.5327 C.ar      1 <0>        -0.2977
     12 C10         2.3788   -4.2990    3.2844 C.ar      1 <0>         0.1981
     13 N3          1.9117   -5.4575    2.8437 N.ar      1 <0>        -0.5591
     14 C11         1.2545   -5.5371    1.6957 C.ar      1 <0>         0.5683
     15 N4          1.0324   -4.4693    0.9457 N.ar      1 <0>        -0.5506
     16 N5          0.7834   -6.7691    1.2720 N.pl3     1 <0>        -0.6389
     17 C12         0.9014   -7.8865    2.1040 C.ar      1 <0>         0.2267
     18 C13         0.7802   -7.7452    3.4805 C.ar      1 <0>        -0.1363
     19 C14         0.8968   -8.8511    4.2995 C.ar      1 <0>        -0.0018
     20 C15         1.1340  -10.0980    3.7505 C.ar      1 <0>        -0.6819
     21 C16         1.2557  -10.2420    2.3806 C.ar      1 <0>         0.0008
     22 C17         1.1344   -9.1411    1.5555 C.ar      1 <0>        -0.1697
     23 S1          1.2822  -11.5063    4.7991 S.o2      1 <0>         2.4995
     24 O1          2.0912  -12.4184    4.0691 O.2       1 <0>        -0.9360
     25 O2          1.7220  -10.9854    6.0458 O.2       1 <0>        -0.9337
     26 C18        -0.4057  -12.1529    4.9525 C.3       1 <0>        -0.6086
     27 C19        -0.3979  -13.3909    5.8514 C.3       1 <0>        -0.1127
     28 C20        -1.8215  -13.9363    5.9808 C.3       1 <0>         0.0633
     29 N6         -1.8139  -15.1250    6.8439 N.3       1 <0>        -0.5392
     30 C21        -1.0792  -16.2304    6.2117 C.3       1 <0>         0.0095
     31 C22        -1.0449  -17.4258    7.1676 C.3       1 <0>         0.0621
     32 O3         -2.3835  -17.7926    7.5124 O.3       1 <0>        -0.3852
     33 C23        -3.1279  -16.7397    8.1308 C.3       1 <0>         0.0625
     34 C24        -3.1833  -15.5373    7.1847 C.3       1 <0>         0.0172
     35 H1          2.5256    1.5528   -0.9628 H         1 <0>         0.0848
     36 H2          0.7829    1.8773   -1.1232 H         1 <0>         0.0907
     37 H3          1.5524    1.9216    0.4812 H         1 <0>         0.1024
     38 H4         -0.0655   -2.8430   -1.0927 H         1 <0>         0.1811
     39 H5          2.1873   -0.6985    2.7290 H         1 <0>         0.1017
     40 H6          4.3833   -0.7840    0.6123 H         1 <0>         0.0682
     41 H7          4.6703   -0.6466    2.3636 H         1 <0>         0.0842
     42 H8          3.9051   -2.1099    1.6993 H         1 <0>         0.0737
     43 H9          1.7821    1.5932    1.9418 H         1 <0>         0.0773
     44 H10         3.4579    1.4485    2.5242 H         1 <0>         0.0838
     45 H11         3.1204    1.4532    0.7765 H         1 <0>         0.0871
     46 H12         2.5466   -2.2007    2.8693 H         1 <0>         0.1562
     47 H13         2.9132   -4.2471    4.2215 H         1 <0>         0.1756
     48 H14         0.3717   -6.8564    0.3981 H         1 <0>         0.4286
     49 H15         0.5953   -6.7717    3.9098 H         1 <0>         0.1426
     50 H16         0.8031   -8.7419    5.3698 H         1 <0>         0.1448
     51 H17         1.4416  -11.2171    1.9551 H         1 <0>         0.1460
     52 H18         1.2251   -9.2550    0.4854 H         1 <0>         0.1370
     53 H19        -1.0487  -11.3897    5.3909 H         1 <0>         0.1380
     54 H20        -0.7826  -12.4226    3.9659 H         1 <0>         0.1357
     55 H21         0.2451  -14.1542    5.4130 H         1 <0>         0.0814
     56 H22        -0.0210  -13.1212    6.8380 H         1 <0>         0.0922
     57 H23        -2.4645  -13.1731    6.4192 H         1 <0>         0.0829
     58 H24        -2.1983  -14.2060    4.9942 H         1 <0>         0.0420
     59 H25        -1.5793  -16.5180    5.2870 H         1 <0>         0.0461
     60 H26        -0.0605  -15.9113    5.9913 H         1 <0>         0.0910
     61 H27        -0.5508  -18.2668    6.6811 H         1 <0>         0.1003
     62 H28        -0.4979  -17.1542    8.0705 H         1 <0>         0.0620
     63 H29        -4.1404  -17.0845    8.3409 H         1 <0>         0.0994
     64 H30        -2.6415  -16.4482    9.0617 H         1 <0>         0.0615
     65 H31        -3.7006  -14.7123    7.6745 H         1 <0>         0.0881
     66 H32        -3.7171  -15.8139    6.2755 H         1 <0>         0.0446
@<TRIPOS>BOND
     1    1    2 1
     2    1   35 1
     3    1   36 1
     4    1   37 1
     5    2    6 1
     6    2    3 2
     7    3    4 1
     8    4    5 2
     9    4   38 1
    10    5    6 1
    11    5   10 1
    12    6    7 1
    13    7    8 1
    14    7    9 1
    15    7   39 1
    16    8   40 1
    17    8   41 1
    18    8   42 1
    19    9   43 1
    20    9   44 1
    21    9   45 1
    22   10   15 ar
    23   10   11 ar
    24   11   12 ar
    25   11   46 1
    26   12   13 ar
    27   12   47 1
    28   13   14 ar
    29   14   15 ar
    30   14   16 1
    31   16   17 1
    32   16   48 1
    33   17   22 ar
    34   17   18 ar
    35   18   19 ar
    36   18   49 1
    37   19   20 ar
    38   19   50 1
    39   20   21 ar
    40   20   23 1
    41   21   22 ar
    42   21   51 1
    43   22   52 1
    44   23   24 2
    45   23   25 2
    46   23   26 1
    47   26   27 1
    48   26   53 1
    49   26   54 1
    50   27   28 1
    51   27   55 1
    52   27   56 1
    53   28   29 1
    54   28   57 1
    55   28   58 1
    56   29   34 1
    57   29   30 1
    58   30   31 1
    59   30   59 1
    60   30   60 1
    61   31   32 1
    62   31   61 1
    63   31   62 1
    64   32   33 1
    65   33   34 1
    66   33   63 1
    67   33   64 1
    68   34   65 1
    69   34   66 1
@<TRIPOS>MOLECULE
CHEMBL424207
   42    44     0     0     0
SMALL
USER_CHARGES

@<TRIPOS>ATOM
      1 C1          1.5900    1.2256   -0.0996 C.3       1 <0>         0.0297
      2 O1          1.1738   -0.1414   -0.0928 O.3       1 <0>        -0.3089
      3 C2          0.9405   -0.7084    1.1178 C.2       1 <0>         0.1222
      4 C3          1.0606   -0.0865    2.3677 C.2       1 <0>        -0.2806
      5 C4          0.7385   -0.9931    3.3207 C.2       1 <0>         0.0979
      6 N1          0.4172   -2.1710    2.7268 N.pl3     1 <0>        -0.5064
      7 H1          0.1496   -2.9821    3.1866 H         1 <0>         0.4307
      8 C5          0.5297   -2.0197    1.3556 C.2       1 <0>        -0.0576
      9 C6          0.2795   -3.0022    0.3866 C.2       1 <0>         0.1242
     10 C7          0.5799   -4.3308    0.6518 C.2       1 <0>        -0.2405
     11 C8          0.2511   -5.5019   -0.1833 C.ar      1 <0>        -0.0245
     12 C9          0.7565   -6.6193    0.4947 C.ar      1 <0>         0.1327
     13 C10         0.5947   -7.8828   -0.0589 C.ar      1 <0>        -0.0705
     14 C11        -0.0585   -8.0383   -1.2672 C.ar      1 <0>        -0.1208
     15 C12        -0.5613   -6.9429   -1.9460 C.ar      1 <0>         0.1225
     16 C13        -0.4117   -5.6616   -1.4098 C.ar      1 <0>        -0.0299
     17 C14        -0.9294   -4.5219   -2.1054 C.1       1 <0>         0.0293
     18 C15        -1.3538   -3.5876   -2.6757 C.1       1 <0>        -0.2762
     19 C16        -1.8860   -2.4161   -3.3907 C.3       1 <0>         0.1865
     20 H2         -2.3624   -2.7406   -4.3158 H         1 <0>         0.1684
     21 C17        -2.9148   -1.7048   -2.5095 C.3       1 <0>         0.0499
     22 O2         -3.5159   -0.6377   -3.2456 O.3       1 <0>        -0.5763
     23 N2         -0.7872   -1.4926   -3.7035 N.4       1 <0>        -0.6333
     24 F1         -1.1971   -7.1120   -3.1259 F         1 <0>        -0.1255
     25 N3          1.3582   -6.1808    1.6691 N.am      1 <0>        -0.6481
     26 C18         1.2737   -4.8445    1.7814 C.2       1 <0>         0.5611
     27 O3          1.7165   -4.1813    2.7031 O.2       1 <0>        -0.5087
     28 H3          2.5235    1.3239    0.4546 H         1 <0>         0.0612
     29 H4          1.7416    1.5541   -1.1278 H         1 <0>         0.1012
     30 H5          0.8225    1.8414    0.3692 H         1 <0>         0.0599
     31 H6          1.3580    0.9372    2.5407 H         1 <0>         0.1522
     32 H7          0.7378   -0.8084    4.3848 H         1 <0>         0.1816
     33 H8         -0.1471   -2.7248   -0.5661 H         1 <0>         0.1405
     34 H9          0.9817   -8.7487    0.4575 H         1 <0>         0.1518
     35 H10        -0.1774   -9.0265   -1.6864 H         1 <0>         0.1591
     36 H11        -3.6841   -2.4141   -2.2042 H         1 <0>         0.0989
     37 H12        -2.4199   -1.3028   -1.6254 H         1 <0>         0.0835
     38 H13        -4.1800   -0.1416   -2.7477 H         1 <0>         0.4141
     39 H14        -0.3462   -1.1923   -2.8471 H         1 <0>         0.4353
     40 H15        -0.1088   -1.9617   -4.2846 H         1 <0>         0.4401
     41 H16         1.7856   -6.7613    2.3181 H         1 <0>         0.4256
     42 H17        -1.1520   -0.6896   -4.1936 H         1 <0>         0.4479
@<TRIPOS>BOND
     1    1    2 1
     2    1   28 1
     3    1   29 1
     4    1   30 1
     5    2    3 1
     6    3    8 2
     7    3    4 1
     8    4    5 2
     9    4   31 1
    10    5    6 1
    11    5   32 1
    12    6    7 1
    13    6    8 1
    14    8    9 1
    15    9   10 2
    16    9   33 1
    17   10   26 1
    18   10   11 1
    19   11   16 ar
    20   11   12 ar
    21   12   13 ar
    22   12   25 1
    23   13   14 ar
    24   13   34 1
    25   14   15 ar
    26   14   35 1
    27   15   16 ar
    28   15   24 1
    29   16   17 1
    30   17   18 3
    31   18   19 1
    32   19   20 1
    33   19   21 1
    34   19   23 1
    35   21   22 1
    36   21   36 1
    37   21   37 1
    38   22   38 1
    39   23   39 1
    40   23   40 1
    41   23   42 1
    42   25   26 am
    43   25   41 1
    44   26   27 2
@<TRIPOS>MOLECULE
CHEMBL424207
   41    43     0     0     0
SMALL
USER_CHARGES

@<TRIPOS>ATOM
      1 C1         -0.9103    1.1984   -1.3267 C.3       1 <0>         0.0327
      2 O1         -0.6621   -0.1615   -0.9648 O.3       1 <0>        -0.2993
      3 C2          0.5169   -0.7005   -1.3661 C.2       1 <0>         0.1197
      4 C3          1.5234   -0.0557   -2.0971 C.2       1 <0>        -0.2822
      5 C4          2.5323   -0.9379   -2.2915 C.2       1 <0>         0.0829
      6 N1          2.2082   -2.1223   -1.7122 N.pl3     1 <0>        -0.5061
      7 H1          2.7604   -2.9197   -1.7075 H         1 <0>         0.4282
      8 C5          0.9610   -2.0002   -1.1246 C.2       1 <0>        -0.0505
      9 C6          0.2717   -2.9979   -0.4200 C.2       1 <0>         0.1236
     10 C7          0.3845   -4.3254   -0.8082 C.2       1 <0>        -0.2362
     11 C8         -0.1448   -5.5078   -0.1018 C.ar      1 <0>        -0.0404
     12 C9          0.2177   -6.6191   -0.8745 C.ar      1 <0>         0.1275
     13 C10        -0.1490   -7.8907   -0.4532 C.ar      1 <0>        -0.0935
     14 C11        -0.8649   -8.0601    0.7172 C.ar      1 <0>        -0.1213
     15 C12        -1.2289   -6.9708    1.4881 C.ar      1 <0>         0.1055
     16 C13        -0.8715   -5.6815    1.0860 C.ar      1 <0>         0.0280
     17 C14        -1.2437   -4.5481    1.8781 C.1       1 <0>        -0.1235
     18 C15        -1.5488   -3.6189    2.5275 C.1       1 <0>        -0.1277
     19 C16        -1.9313   -2.4538    3.3418 C.3       1 <0>         0.2088
     20 H2         -2.4861   -2.7893    4.2180 H         1 <0>         0.1146
     21 C17        -0.6721   -1.7090    3.7897 C.3       1 <0>         0.0435
     22 O2         -1.0359   -0.6476    4.6746 O.3       1 <0>        -0.5698
     23 N2         -2.7744   -1.5540    2.5434 N.3       1 <0>        -0.8332
     24 F1         -1.9285   -7.1536    2.6293 F         1 <0>        -0.1268
     25 N3          0.9228   -6.1666   -1.9843 N.am      1 <0>        -0.6490
     26 C18         1.0287   -4.8272   -1.9719 C.2       1 <0>         0.5626
     27 O3          1.5888   -4.1527   -2.8186 O.2       1 <0>        -0.5202
     28 H3         -0.1363    1.8354   -0.8985 H         1 <0>         0.0559
     29 H4         -0.8994    1.2933   -2.4125 H         1 <0>         0.0564
     30 H5         -1.8845    1.5040   -0.9451 H         1 <0>         0.1019
     31 H6          1.4989    0.9666   -2.4448 H         1 <0>         0.1483
     32 H7          3.4493   -0.7320   -2.8235 H         1 <0>         0.1765
     33 H8         -0.3470   -2.7330    0.4247 H         1 <0>         0.1489
     34 H9          0.1264   -8.7521   -1.0436 H         1 <0>         0.1430
     35 H10        -1.1436   -9.0546    1.0331 H         1 <0>         0.1513
     36 H11        -0.0056   -2.4000    4.3059 H         1 <0>         0.0561
     37 H12        -0.1640   -1.2972    2.9178 H         1 <0>         0.0521
     38 H13        -0.2853   -0.1314    4.9991 H         1 <0>         0.3873
     39 H14        -3.1033   -0.7787    3.0991 H         1 <0>         0.3587
     40 H15        -2.2823   -1.2290    1.7247 H         1 <0>         0.3459
     41 H16         1.2857   -6.7406   -2.6769 H         1 <0>         0.4199
@<TRIPOS>BOND
     1    1    2 1
     2    1   28 1
     3    1   29 1
     4    1   30 1
     5    2    3 1
     6    3    8 2
     7    3    4 1
     8    4    5 2
     9    4   31 1
    10    5    6 1
    11    5   32 1
    12    6    7 1
    13    6    8 1
    14    8    9 1
    15    9   10 2
    16    9   33 1
    17   10   26 1
    18   10   11 1
    19   11   16 ar
    20   11   12 ar
    21   12   13 ar
    22   12   25 1
    23   13   14 ar
    24   13   34 1
    25   14   15 ar
    26   14   35 1
    27   15   16 ar
    28   15   24 1
    29   16   17 1
    30   17   18 3
    31   18   19 1
    32   19   20 1
    33   19   21 1
    34   19   23 1
    35   21   22 1
    36   21   36 1
    37   21   37 1
    38   22   38 1
    39   23   39 1
    40   23   40 1
    41   25   26 am
    42   25   41 1
    43   26   27 2
@<TRIPOS>MOLECULE
CHEMBL560839
   62    66     0     0     0
SMALL
USER_CHARGES

@<TRIPOS>ATOM
      1 C1         -0.4772    1.1934    2.0465 C.3       1 <0>        -0.1466
      2 C2         -0.3708   -0.2937    1.7030 C.3       1 <0>         0.0126
      3 C3         -0.1228   -0.4528    0.2024 C.3       1 <0>        -0.0555
      4 C4          0.3310   -1.8371   -0.1592 C.ar      1 <0>        -0.2126
      5 C5         -0.0501   -2.4176   -1.3545 C.ar      1 <0>         0.1972
      6 N1          0.3917   -3.6304   -1.6515 N.ar      1 <0>        -0.5443
      7 C6          1.1925   -4.2945   -0.8301 C.ar      1 <0>         0.5642
      8 N2          1.5756   -3.7819    0.3316 N.ar      1 <0>        -0.5577
      9 C7          1.1567   -2.5796    0.6969 C.ar      1 <0>         0.2908
     10 C8          1.4817   -1.9850    2.0048 C.2       1 <0>         0.0418
     11 C9          0.7651   -0.9036    2.4714 C.2       1 <0>        -0.1144
     12 C10         1.3272   -0.5848    3.7080 C.2       1 <0>         0.0010
     13 N3          2.2938   -1.4621    3.9342 N.2       1 <0>        -0.2464
     14 N4          2.3869   -2.2958    2.9530 N.pl3     1 <0>        -0.2459
     15 C11         3.3334   -3.4117    2.8815 C.3       1 <0>         0.0824
     16 C12         0.9215    0.5230    4.5973 C.2       1 <0>         0.6140
     17 O1         -0.1094    0.4429    5.2366 O.2       1 <0>        -0.5190
     18 N5          1.6942    1.6225    4.6998 N.am      1 <0>        -0.7220
     19 C13         1.2919    2.7210    5.5817 C.3       1 <0>         0.0865
     20 N6          1.6397   -5.5544   -1.1936 N.pl3     1 <0>        -0.6358
     21 C14         1.3391   -6.0643   -2.4602 C.ar      1 <0>         0.2121
     22 C15         1.2200   -5.2049   -3.5459 C.ar      1 <0>        -0.1706
     23 C16         0.9230   -5.7079   -4.7976 C.ar      1 <0>        -0.0503
     24 C17         0.7428   -7.0663   -4.9748 C.ar      1 <0>        -0.2149
     25 C18         0.8600   -7.9311   -3.8935 C.ar      1 <0>         0.2402
     26 C19         1.1649   -7.4296   -2.6357 C.ar      1 <0>        -0.2298
     27 N7          0.6774   -9.3041   -4.0733 N.pl3     1 <0>        -0.6326
     28 C20         0.6670  -10.2237   -2.9246 C.3       1 <0>         0.0870
     29 C21        -0.5844  -11.1038   -3.0211 C.3       1 <0>         0.0456
     30 O2         -0.6378  -11.7057   -4.3167 O.3       1 <0>        -0.3791
     31 C22        -0.7537  -10.7708   -5.3921 C.3       1 <0>         0.0449
     32 C23         0.4835   -9.8729   -5.4165 C.3       1 <0>         0.0867
     33 C24        -1.6760   -0.9977    2.0795 C.3       1 <0>        -0.1386
     34 H1          0.4862    1.6749    1.8785 H         1 <0>         0.0577
     35 H2         -1.2317    1.6596    1.4129 H         1 <0>         0.0674
     36 H3         -0.7617    1.3052    3.0927 H         1 <0>         0.0670
     37 H4         -1.0463   -0.2328   -0.3332 H         1 <0>         0.0897
     38 H5          0.6409    0.2610   -0.1067 H         1 <0>         0.0830
     39 H6         -0.6990   -1.8892   -2.0372 H         1 <0>         0.1772
     40 H7          4.2560   -3.0758    2.4080 H         1 <0>         0.0877
     41 H8          3.5508   -3.7687    3.8882 H         1 <0>         0.0991
     42 H9          2.8978   -4.2207    2.2952 H         1 <0>         0.1109
     43 H10         2.5168    1.6864    4.1897 H         1 <0>         0.4051
     44 H11         2.0354    3.5166    5.5335 H         1 <0>         0.0796
     45 H12         0.3244    3.1080    5.2618 H         1 <0>         0.0644
     46 H13         1.2164    2.3557    6.6059 H         1 <0>         0.0635
     47 H14         2.1613   -6.0826   -0.5694 H         1 <0>         0.4221
     48 H15         1.3595   -4.1425   -3.4106 H         1 <0>         0.1329
     49 H16         0.8310   -5.0378   -5.6396 H         1 <0>         0.1247
     50 H17         0.5104   -7.4564   -5.9547 H         1 <0>         0.1221
     51 H18         1.2617   -8.1001   -1.7946 H         1 <0>         0.1230
     52 H19         1.5589  -10.8499   -2.9477 H         1 <0>         0.0709
     53 H20         0.6432   -9.6520   -1.9969 H         1 <0>         0.0908
     54 H21        -0.5416  -11.8823   -2.2595 H         1 <0>         0.1050
     55 H22        -1.4729  -10.4914   -2.8672 H         1 <0>         0.0558
     56 H23        -0.8326  -11.3098   -6.3362 H         1 <0>         0.1059
     57 H24        -1.6428  -10.1572   -5.2468 H         1 <0>         0.0559
     58 H25         0.3381   -9.0691   -6.1382 H         1 <0>         0.0947
     59 H26         1.3565  -10.4633   -5.6947 H         1 <0>         0.0710
     60 H27        -2.5017   -0.5540    1.5231 H         1 <0>         0.0654
     61 H28        -1.6009   -2.0573    1.8350 H         1 <0>         0.0512
     62 H29        -1.8553   -0.8832    3.1485 H         1 <0>         0.0655
@<TRIPOS>BOND
     1    1    2 1
     2    1   34 1
     3    1   35 1
     4    1   36 1
     5    2   11 1
     6    2    3 1
     7    2   33 1
     8    3    4 1
     9    3   37 1
    10    3   38 1
    11    4    9 ar
    12    4    5 ar
    13    5    6 ar
    14    5   39 1
    15    6    7 ar
    16    7    8 ar
    17    7   20 1
    18    8    9 ar
    19    9   10 1
    20   10   14 1
    21   10   11 2
    22   11   12 1
    23   12   13 2
    24   12   16 1
    25   13   14 1
    26   14   15 1
    27   15   40 1
    28   15   41 1
    29   15   42 1
    30   16   17 2
    31   16   18 am
    32   18   19 1
    33   18   43 1
    34   19   44 1
    35   19   45 1
    36   19   46 1
    37   20   21 1
    38   20   47 1
    39   21   26 ar
    40   21   22 ar
    41   22   23 ar
    42   22   48 1
    43   23   24 ar
    44   23   49 1
    45   24   25 ar
    46   24   50 1
    47   25   26 ar
    48   25   27 1
    49   26   51 1
    50   27   32 1
    51   27   28 1
    52   28   29 1
    53   28   52 1
    54   28   53 1
    55   29   30 1
    56   29   54 1
    57   29   55 1
    58   30   31 1
    59   31   32 1
    60   31   56 1
    61   31   57 1
    62   32   58 1
    63   32   59 1
    64   33   60 1
    65   33   61 1
    66   33   62 1
@<TRIPOS>MOLECULE
CHEMBL565137
   69    73     0     0     0
SMALL
USER_CHARGES

@<TRIPOS>ATOM
      1 C1         -0.7441    1.0331    2.2828 C.3       1 <0>        -0.1477
      2 C2         -0.5947   -0.4435    1.9111 C.3       1 <0>         0.0124
      3 C3         -0.3194   -0.5653    0.4119 C.3       1 <0>        -0.0564
      4 C4          0.1749   -1.9301    0.0297 C.ar      1 <0>        -0.2082
      5 C5         -0.1727   -2.4953   -1.1831 C.ar      1 <0>         0.1948
      6 N1          0.3043   -3.6902   -1.4975 N.ar      1 <0>        -0.5572
      7 C6          1.1089   -4.3508   -0.6769 C.ar      1 <0>         0.5615
      8 N2          1.4608   -3.8528    0.5011 N.ar      1 <0>        -0.5543
      9 C7          1.0058   -2.6692    0.8838 C.ar      1 <0>         0.2981
     10 C8          1.2952   -2.0937    2.2085 C.2       1 <0>         0.0342
     11 C9          0.5442   -1.0405    2.6853 C.2       1 <0>        -0.1117
     12 C10         1.0787   -0.7332    3.9369 C.2       1 <0>         0.0030
     13 N3          2.0636   -1.5905    4.1608 N.2       1 <0>        -0.2416
     14 N4          2.1932   -2.4012    3.1645 N.pl3     1 <0>        -0.2447
     15 C11         3.1691   -3.4909    3.0856 C.3       1 <0>         0.0819
     16 C12         0.6310    0.3454    4.8419 C.2       1 <0>         0.6120
     17 O1         -0.4072    0.2260    5.4629 O.2       1 <0>        -0.5172
     18 N5          1.3737    1.4617    4.9791 N.am      1 <0>        -0.7212
     19 C13         0.9297    2.5312    5.8764 C.3       1 <0>         0.0856
     20 N6          1.5934   -5.5910   -1.0585 N.pl3     1 <0>        -0.6367
     21 C14         1.3243   -6.0834   -2.3416 C.ar      1 <0>         0.1454
     22 C15         1.2059   -5.2063   -3.4115 C.ar      1 <0>        -0.0765
     23 C16         0.9410   -5.6926   -4.6766 C.ar      1 <0>        -0.1875
     24 C17         0.7932   -7.0570   -4.8786 C.ar      1 <0>         0.0959
     25 C18         0.9108   -7.9338   -3.8103 C.ar      1 <0>        -0.1181
     26 C19         1.1814   -7.4495   -2.5456 C.ar      1 <0>        -0.1065
     27 O2          0.5324   -7.5351   -6.1247 O.3       1 <0>        -0.2993
     28 C20         0.5328   -6.5892   -7.1958 C.3       1 <0>         0.0762
     29 C21        -0.8458   -5.9303   -7.2977 C.3       1 <0>        -0.1787
     30 C22        -0.8626   -4.9777   -8.4951 C.3       1 <0>        -0.0027
     31 N7         -0.5851   -5.7281   -9.7257 N.4       1 <0>        -0.3875
     32 C23         0.7640   -6.3032   -9.6650 C.3       1 <0>        -0.0016
     33 C24         0.8433   -7.3067   -8.5125 C.3       1 <0>        -0.1453
     34 C25        -0.6791   -4.8246  -10.8802 C.3       1 <0>        -0.0477
     35 C26        -1.8873   -1.1875    2.2523 C.3       1 <0>        -0.1390
     36 H1          0.2096    1.5416    2.1417 H         1 <0>         0.0585
     37 H2         -1.4992    1.4936    1.6457 H         1 <0>         0.0678
     38 H3         -1.0492    1.1161    3.3260 H         1 <0>         0.0688
     39 H4         -1.2397   -0.3576   -0.1340 H         1 <0>         0.0898
     40 H5          0.4306    0.1735    0.1296 H         1 <0>         0.0843
     41 H6         -0.8247   -1.9696   -1.8649 H         1 <0>         0.1763
     42 H7          4.0900   -3.1219    2.6340 H         1 <0>         0.0881
     43 H8          3.3799   -3.8633    4.0881 H         1 <0>         0.1010
     44 H9          2.7637   -4.2983    2.4758 H         1 <0>         0.1099
     45 H10         2.2021    1.5569    4.4836 H         1 <0>         0.4049
     46 H11         1.6533    3.3461    5.8563 H         1 <0>         0.0806
     47 H12        -0.0422    2.9001    5.5490 H         1 <0>         0.0649
     48 H13         0.8478    2.1430    6.8917 H         1 <0>         0.0647
     49 H14         2.1191   -6.1185   -0.4370 H         1 <0>         0.4259
     50 H15         1.3206   -4.1439   -3.2543 H         1 <0>         0.1418
     51 H16         0.8486   -5.0105   -5.5088 H         1 <0>         0.1257
     52 H17         0.7953   -8.9959   -3.9683 H         1 <0>         0.1377
     53 H18         1.2774   -8.1327   -1.7147 H         1 <0>         0.1373
     54 H19         1.2894   -5.8271   -7.0087 H         1 <0>         0.0900
     55 H20        -1.6073   -6.6984   -7.4329 H         1 <0>         0.1015
     56 H21        -1.0503   -5.3709   -6.3847 H         1 <0>         0.1196
     57 H22        -1.8427   -4.5068   -8.5705 H         1 <0>         0.1374
     58 H23        -0.1010   -4.2099   -8.3587 H         1 <0>         0.1306
     59 H24         0.9847   -6.8108  -10.6040 H         1 <0>         0.1400
     60 H25         1.4909   -5.5071   -9.5037 H         1 <0>         0.1317
     61 H26         1.8463   -7.7312   -8.4680 H         1 <0>         0.1222
     62 H27         0.1170   -8.1034   -8.6730 H         1 <0>         0.1011
     63 H28         0.0488   -4.0204  -10.7724 H         1 <0>         0.1225
     64 H29        -0.4732   -5.3808  -11.7947 H         1 <0>         0.1257
     65 H30        -1.6827   -4.4020  -10.9301 H         1 <0>         0.1254
     66 H31        -2.7152   -0.7534    1.6918 H         1 <0>         0.0656
     67 H32        -1.7816   -2.2396    1.9877 H         1 <0>         0.0502
     68 H33        -2.0861   -1.0997    3.3204 H         1 <0>         0.0676
     69 H34        -1.2617   -6.4700   -9.8259 H         1 <0>         0.4271
@<TRIPOS>BOND
     1    1    2 1
     2    1   36 1
     3    1   37 1
     4    1   38 1
     5    2   11 1
     6    2    3 1
     7    2   35 1
     8    3    4 1
     9    3   39 1
    10    3   40 1
    11    4    9 ar
    12    4    5 ar
    13    5    6 ar
    14    5   41 1
    15    6    7 ar
    16    7    8 ar
    17    7   20 1
    18    8    9 ar
    19    9   10 1
    20   10   14 1
    21   10   11 2
    22   11   12 1
    23   12   13 2
    24   12   16 1
    25   13   14 1
    26   14   15 1
    27   15   42 1
    28   15   43 1
    29   15   44 1
    30   16   17 2
    31   16   18 am
    32   18   19 1
    33   18   45 1
    34   19   46 1
    35   19   47 1
    36   19   48 1
    37   20   21 1
    38   20   49 1
    39   21   26 ar
    40   21   22 ar
    41   22   23 ar
    42   22   50 1
    43   23   24 ar
    44   23   51 1
    45   24   25 ar
    46   24   27 1
    47   25   26 ar
    48   25   52 1
    49   26   53 1
    50   27   28 1
    51   28   33 1
    52   28   29 1
    53   28   54 1
    54   29   30 1
    55   29   55 1
    56   29   56 1
    57   30   31 1
    58   30   57 1
    59   30   58 1
    60   31   32 1
    61   31   34 1
    62   31   69 1
    63   32   33 1
    64   32   59 1
    65   32   60 1
    66   33   61 1
    67   33   62 1
    68   34   63 1
    69   34   64 1
    70   34   65 1
    71   35   66 1
    72   35   67 1
    73   35   68 1
@<TRIPOS>MOLECULE
CHEMBL550959
   65    69     0     0     0
SMALL
USER_CHARGES

@<TRIPOS>ATOM
      1 C1         -0.9471    1.0364    1.6147 C.3       1 <0>        -0.1463
      2 C2         -0.7149   -0.4545    1.3612 C.3       1 <0>         0.0125
      3 C3         -0.3408   -0.6688   -0.1059 C.3       1 <0>        -0.0555
      4 C4          0.2314   -2.0335   -0.3573 C.ar      1 <0>        -0.2127
      5 C5         -0.0157   -2.6975   -1.5443 C.ar      1 <0>         0.1979
      6 N1          0.5281   -3.8889   -1.7416 N.ar      1 <0>        -0.5495
      7 C6          1.3053   -4.4535   -0.8282 C.ar      1 <0>         0.5635
      8 N2          1.5617   -3.8587    0.3293 N.ar      1 <0>        -0.5572
      9 C7          1.0360   -2.6728    0.5967 C.ar      1 <0>         0.2921
     10 C8          1.2177   -1.9932    1.8910 C.2       1 <0>         0.0411
     11 C9          0.3960   -0.9439    2.2438 C.2       1 <0>        -0.1144
     12 C10         0.8376   -0.5259    3.4996 C.2       1 <0>         0.0013
     13 N3          1.8403   -1.3203    3.8441 N.2       1 <0>        -0.2458
     14 N4          2.0652   -2.1923    2.9191 N.pl3     1 <0>        -0.2457
     15 C11         3.0872   -3.2401    2.9786 C.3       1 <0>         0.0823
     16 C12         0.2904    0.5924    4.2951 C.2       1 <0>         0.6140
     17 O1         -0.7697    0.4635    4.8760 O.2       1 <0>        -0.5188
     18 N5          0.9665    1.7554    4.3768 N.am      1 <0>        -0.7220
     19 C13         0.4239    2.8643    5.1656 C.3       1 <0>         0.0864
     20 N6          1.8629   -5.6947   -1.0887 N.pl3     1 <0>        -0.6366
     21 C14         1.6946   -6.2872   -2.3439 C.ar      1 <0>         0.1662
     22 C15         1.6335   -5.4965   -3.4842 C.ar      1 <0>        -0.1129
     23 C16         1.4677   -6.0849   -4.7226 C.ar      1 <0>        -0.0933
     24 C17         1.3625   -7.4597   -4.8280 C.ar      1 <0>        -0.0966
     25 C18         1.4225   -8.2498   -3.6946 C.ar      1 <0>        -0.0747
     26 C19         1.5939   -7.6681   -2.4538 C.ar      1 <0>        -0.1474
     27 C20         1.1816   -8.0984   -6.1810 C.3       1 <0>         0.0959
     28 N7          2.4976   -8.4004   -6.7598 N.3       1 <0>        -0.5316
     29 C21         3.2373   -7.1657   -7.0592 C.3       1 <0>         0.0143
     30 C22         4.6222   -7.5262   -7.6033 C.3       1 <0>         0.0631
     31 O2          4.4739   -8.3613   -8.7548 O.3       1 <0>        -0.3857
     32 C23         3.7586   -9.5730   -8.4989 C.3       1 <0>         0.0633
     33 C24         2.3649   -9.2332   -7.9639 C.3       1 <0>         0.0166
     34 C25        -1.9954   -1.2300    1.6774 C.3       1 <0>        -0.1387
     35 H1         -0.0062    1.5750    1.5018 H         1 <0>         0.0579
     36 H2         -1.6729    1.4183    0.8968 H         1 <0>         0.0675
     37 H3         -1.3276    1.1780    2.6263 H         1 <0>         0.0667
     38 H4         -1.2325   -0.5415   -0.7197 H         1 <0>         0.0897
     39 H5          0.3950    0.0813   -0.3957 H         1 <0>         0.0831
     40 H6         -0.6441   -2.2508   -2.3006 H         1 <0>         0.1769
     41 H7          4.0192   -2.8631    2.5574 H         1 <0>         0.0877
     42 H8          3.2491   -3.5312    4.0165 H         1 <0>         0.0993
     43 H9          2.7539   -4.1058    2.4062 H         1 <0>         0.1109
     44 H10         1.8123    1.8583    3.9132 H         1 <0>         0.4051
     45 H11         1.1043    3.7143    5.1136 H         1 <0>         0.0797
     46 H12        -0.5486    3.1525    4.7663 H         1 <0>         0.0644
     47 H13         0.3122    2.5512    6.2036 H         1 <0>         0.0636
     48 H14         2.3700   -6.1527   -0.4003 H         1 <0>         0.4233
     49 H15         1.7152   -4.4227   -3.4025 H         1 <0>         0.1335
     50 H16         1.4197   -5.4707   -5.6096 H         1 <0>         0.1208
     51 H17         1.3393   -9.3232   -3.7803 H         1 <0>         0.1265
     52 H18         1.6451   -8.2860   -1.5695 H         1 <0>         0.1247
     53 H19         0.6114   -9.0211   -6.0739 H         1 <0>         0.0851
     54 H20         0.6446   -7.4135   -6.8372 H         1 <0>         0.0449
     55 H21         2.6926   -6.5869   -7.8051 H         1 <0>         0.0427
     56 H22         3.3460   -6.5766   -6.1486 H         1 <0>         0.0908
     57 H23         5.1529   -6.6153   -7.8803 H         1 <0>         0.0977
     58 H24         5.1867   -8.0586   -6.8378 H         1 <0>         0.0596
     59 H25         3.6646  -10.1424   -9.4236 H         1 <0>         0.0989
     60 H26         4.2980  -10.1649   -7.7595 H         1 <0>         0.0602
     61 H27         1.8368  -10.1534   -7.7137 H         1 <0>         0.0876
     62 H28         1.8062   -8.6874   -8.7243 H         1 <0>         0.0440
     63 H29        -2.8031   -0.8738    1.0381 H         1 <0>         0.0655
     64 H30        -1.8307   -2.2923    1.4971 H         1 <0>         0.0512
     65 H31        -2.2645   -1.0764    2.7225 H         1 <0>         0.0656
@<TRIPOS>BOND
     1    1    2 1
     2    1   35 1
     3    1   36 1
     4    1   37 1
     5    2   11 1
     6    2    3 1
     7    2   34 1
     8    3    4 1
     9    3   38 1
    10    3   39 1
    11    4    9 ar
    12    4    5 ar
    13    5    6 ar
    14    5   40 1
    15    6    7 ar
    16    7    8 ar
    17    7   20 1
    18    8    9 ar
    19    9   10 1
    20   10   14 1
    21   10   11 2
    22   11   12 1
    23   12   13 2
    24   12   16 1
    25   13   14 1
    26   14   15 1
    27   15   41 1
    28   15   42 1
    29   15   43 1
    30   16   17 2
    31   16   18 am
    32   18   19 1
    33   18   44 1
    34   19   45 1
    35   19   46 1
    36   19   47 1
    37   20   21 1
    38   20   48 1
    39   21   26 ar
    40   21   22 ar
    41   22   23 ar
    42   22   49 1
    43   23   24 ar
    44   23   50 1
    45   24   25 ar
    46   24   27 1
    47   25   26 ar
    48   25   51 1
    49   26   52 1
    50   27   28 1
    51   27   53 1
    52   27   54 1
    53   28   33 1
    54   28   29 1
    55   29   30 1
    56   29   55 1
    57   29   56 1
    58   30   31 1
    59   30   57 1
    60   30   58 1
    61   31   32 1
    62   32   33 1
    63   32   59 1
    64   32   60 1
    65   33   61 1
    66   33   62 1
    67   34   63 1
    68   34   64 1
    69   34   65 1
@<TRIPOS>MOLECULE
CHEMBL75610
   65    71     0     0     0
SMALL
USER_CHARGES

@<TRIPOS>ATOM
      1 C1         -0.0178    1.4613    0.0101 C.3       1 <0>         0.0581
      2 N1          0.0021   -0.0041    0.0020 N.pl3     1 <0>        -0.4419
      3 C2         -0.0218   -0.7478   -1.1468 C.2       1 <0>         0.0496
      4 C3         -0.1157   -2.0491   -0.8379 C.2       1 <0>        -0.1831
      5 C4         -0.1502   -2.1329    0.6212 C.ar      1 <0>        -0.1218
      6 C5          0.0236   -0.8228    1.0987 C.ar      1 <0>         0.1052
      7 C6          0.2017   -0.6463    2.4844 C.ar      1 <0>         0.0547
      8 C7         -0.2656   -1.6699    3.3593 C.ar      1 <0>        -0.0113
      9 C8         -0.4340   -2.9690    2.8515 C.ar      1 <0>        -0.1745
     10 C9         -0.3463   -3.1990    1.5163 C.ar      1 <0>        -0.0255
     11 C10        -0.5440   -1.3620    4.7084 C.ar      1 <0>         0.1647
     12 C11        -0.0298   -0.1628    5.2342 C.ar      1 <0>        -0.0392
     13 C12        -0.4096   -0.1228    6.6566 C.ar      1 <0>        -0.1274
     14 C13        -0.1752    0.7932    7.6807 C.ar      1 <0>        -0.0058
     15 C14        -0.6634    0.5387    8.9433 C.ar      1 <0>        -0.2215
     16 C15        -1.3859   -0.6247    9.1954 C.ar      1 <0>         0.1767
     17 C16        -1.6317   -1.5332    8.1787 C.ar      1 <0>        -0.1861
     18 C17        -1.1491   -1.2866    6.8993 C.ar      1 <0>         0.1656
     19 N2         -1.2496   -1.9881    5.7073 N.pl3     1 <0>        -0.4829
     20 C18        -2.0398   -3.2156    5.5713 C.3       1 <0>         0.0885
     21 C19        -1.1507   -4.4284    5.8538 C.3       1 <0>        -0.0418
     22 N3         -1.9424   -5.6583    5.7176 N.4       1 <0>        -0.3791
     23 C20        -2.9865   -5.6830    6.7490 C.3       1 <0>        -0.0159
     24 C21        -3.8648   -6.9219    6.5615 C.3       1 <0>        -0.1448
     25 C22        -2.9975   -8.1785    6.6806 C.3       1 <0>        -0.1399
     26 C23        -1.8676   -8.1066    5.6494 C.3       1 <0>        -0.1454
     27 C24        -1.0634   -6.8237    5.8707 C.3       1 <0>        -0.0072
     28 O1         -1.8409   -0.8694   10.4508 O.3       1 <0>        -0.3130
     29 C25        -1.5406    0.1057   11.4513 C.3       1 <0>         0.0234
     30 C26         0.6913    0.7267    4.4236 C.ar      1 <0>        -0.0799
     31 C27         0.8613    0.4580    3.0563 C.ar      1 <0>        -0.1506
     32 C28         1.8402    1.4532    2.5917 C.2       1 <0>         0.5788
     33 O2          2.4288    1.4374    1.5291 O.2       1 <0>        -0.4513
     34 N4          2.0156    2.3762    3.5599 N.am      1 <0>        -0.6813
     35 C29         1.3563    2.0220    4.6756 C.2       1 <0>         0.5779
     36 O3          1.3097    2.6515    5.7141 O.2       1 <0>        -0.4516
     37 H1          1.0048    1.8386    0.0023 H         1 <0>         0.0915
     38 H2         -0.5450    1.8224   -0.8730 H         1 <0>         0.0945
     39 H3         -0.5280    1.8128    0.9069 H         1 <0>         0.0781
     40 H4          0.0227   -0.3458   -2.1469 H         1 <0>         0.1788
     41 H5         -0.1506   -2.8744   -1.5332 H         1 <0>         0.1561
     42 H6         -0.6107   -3.8094    3.5023 H         1 <0>         0.1138
     43 H7         -0.4311   -4.2062    1.1422 H         1 <0>         0.1311
     44 H8          0.3820    1.6976    7.4953 H         1 <0>         0.1501
     45 H9         -0.4778    1.2431    9.7409 H         1 <0>         0.1415
     46 H10        -2.1864   -2.4318    8.3996 H         1 <0>         0.1305
     47 H11        -2.8655   -3.1969    6.2827 H         1 <0>         0.1162
     48 H12        -2.4349   -3.2830    4.5577 H         1 <0>         0.1157
     49 H13        -0.3250   -4.4471    5.1425 H         1 <0>         0.1400
     50 H14        -0.7556   -4.3610    6.8674 H         1 <0>         0.1412
     51 H15        -2.5222   -5.7131    7.7347 H         1 <0>         0.1326
     52 H16        -3.6009   -4.7866    6.6650 H         1 <0>         0.1302
     53 H17        -4.6382   -6.9394    7.3293 H         1 <0>         0.1139
     54 H18        -4.3298   -6.8927    5.5761 H         1 <0>         0.0891
     55 H19        -2.5731   -8.2348    7.6830 H         1 <0>         0.0825
     56 H20        -3.6077   -9.0617    6.4917 H         1 <0>         0.0954
     57 H21        -1.2135   -8.9708    5.7653 H         1 <0>         0.1139
     58 H22        -2.2912   -8.1019    4.6451 H         1 <0>         0.0890
     59 H23        -0.2579   -6.7694    5.1383 H         1 <0>         0.1318
     60 H24        -0.6401   -6.8295    6.8752 H         1 <0>         0.1305
     61 H25        -0.4595    0.2079   11.5462 H         1 <0>         0.0625
     62 H26        -1.9724    1.0648   11.1651 H         1 <0>         0.0631
     63 H27        -1.9608   -0.2116   12.4057 H         1 <0>         0.1074
     64 H28         2.5465    3.1820    3.4659 H         1 <0>         0.4354
     65 H29        -2.3730   -5.6806    4.8054 H         1 <0>         0.4235
@<TRIPOS>BOND
     1    1    2 1
     2    1   37 1
     3    1   38 1
     4    1   39 1
     5    2    6 1
     6    2    3 1
     7    3    4 2
     8    3   40 1
     9    4    5 1
    10    4   41 1
    11    5   10 ar
    12    5    6 ar
    13    6    7 ar
    14    7   31 ar
    15    7    8 ar
    16    8    9 ar
    17    8   11 ar
    18    9   10 ar
    19    9   42 1
    20   10   43 1
    21   11   19 1
    22   11   12 ar
    23   12   13 1
    24   12   30 ar
    25   13   18 ar
    26   13   14 ar
    27   14   15 ar
    28   14   44 1
    29   15   16 ar
    30   15   45 1
    31   16   17 ar
    32   16   28 1
    33   17   18 ar
    34   17   46 1
    35   18   19 1
    36   19   20 1
    37   20   21 1
    38   20   47 1
    39   20   48 1
    40   21   22 1
    41   21   49 1
    42   21   50 1
    43   22   27 1
    44   22   23 1
    45   22   65 1
    46   23   24 1
    47   23   51 1
    48   23   52 1
    49   24   25 1
    50   24   53 1
    51   24   54 1
    52   25   26 1
    53   25   55 1
    54   25   56 1
    55   26   27 1
    56   26   57 1
    57   26   58 1
    58   27   59 1
    59   27   60 1
    60   28   29 1
    61   29   61 1
    62   29   62 1
    63   29   63 1
    64   30   35 1
    65   30   31 ar
    66   31   32 1
    67   32   33 2
    68   32   34 am
    69   34   35 am
    70   34   64 1
    71   35   36 2
@<TRIPOS>MOLECULE
CHEMBL398774
   55    58     0     0     0
SMALL
USER_CHARGES

@<TRIPOS>ATOM
      1 C1         -4.6495   -6.7807    3.9793 C.ar      1 <0>        -0.0837
      2 C2         -4.4190   -5.6722    4.7747 C.ar      1 <0>        -0.1254
      3 C3         -3.1957   -5.0356    4.7382 C.ar      1 <0>        -0.0509
      4 C4         -2.1893   -5.5120    3.8963 C.ar      1 <0>        -0.1373
      5 C5         -2.4285   -6.6308    3.0964 C.ar      1 <0>        -0.0820
      6 C6         -3.6563   -7.2581    3.1426 C.ar      1 <0>        -0.1242
      7 C7         -0.8765   -4.8346    3.8516 C.2       1 <0>         0.5623
      8 O1         -0.6712   -3.8604    4.5490 O.2       1 <0>        -0.4967
      9 N1          0.0931   -5.2971    3.0377 N.am      1 <0>        -0.6056
     10 C8          1.3269   -4.6606    2.9957 C.2       1 <0>         0.2564
     11 N2          2.3790   -4.9639    2.2662 N.2       1 <0>        -0.5344
     12 C9          3.4891   -4.2534    2.3414 C.2       1 <0>         0.0810
     13 C10         3.4922   -3.2042    3.2000 C.2       1 <0>        -0.2633
     14 S1          1.8366   -3.3095    3.8602 S.3       1 <0>         0.2230
     15 C11         4.6991   -4.5937    1.5101 C.3       1 <0>         0.0457
     16 C12         5.0869   -6.0297    1.7518 C.2       1 <0>         0.2186
     17 N3          5.9067   -6.4647    2.6664 N.2       1 <0>        -0.2645
     18 N4          6.0108   -7.7436    2.5934 N.2       1 <0>        -0.2838
     19 C13         5.2564   -8.1976    1.6196 C.2       1 <0>         0.1582
     20 N5          4.6389   -7.1183    1.0556 N.pl3     1 <0>        -0.2476
     21 N6          3.7363   -7.1244   -0.0158 N.am      1 <0>        -0.5136
     22 C14         2.4477   -7.4611    0.1906 C.2       1 <0>         0.5728
     23 O2          2.0471   -7.6690    1.3193 O.2       1 <0>        -0.4751
     24 C15         1.5217   -7.5776   -0.9553 C.ar      1 <0>        -0.1210
     25 C16         1.9803   -7.3449   -2.2533 C.ar      1 <0>        -0.0720
     26 C17         1.1116   -7.4551   -3.3186 C.ar      1 <0>        -0.1120
     27 C18        -0.2136   -7.7957   -3.1028 C.ar      1 <0>        -0.0061
     28 C19        -0.6744   -8.0272   -1.8173 C.ar      1 <0>        -0.1137
     29 C20         0.1863   -7.9262   -0.7447 C.ar      1 <0>        -0.0421
     30 Cl1        -1.3013   -7.9324   -4.4489 Cl        1 <0>        -0.0528
     31 S2          5.0711   -9.8818    1.1359 S.3       1 <0>         0.0924
     32 C21         6.1455  -10.7884    2.2823 C.3       1 <0>        -0.1444
     33 C22         6.0792  -12.2620    1.9739 C.2       1 <0>         0.5369
     34 O3          5.3763  -12.6613    1.0697 O.2       1 <0>        -0.5101
     35 N7          6.8009  -13.1362    2.7028 N.am      1 <0>        -0.5699
     36 N8          6.7408  -14.4719    2.4232 N.3       1 <0>        -0.6003
     37 H1         -5.6074   -7.2781    4.0150 H         1 <0>         0.1321
     38 H2         -5.1986   -5.3045    5.4254 H         1 <0>         0.1352
     39 H3         -3.0172   -4.1703    5.3593 H         1 <0>         0.1405
     40 H4         -1.6542   -7.0043    2.4426 H         1 <0>         0.1252
     41 H5         -3.8427   -8.1238    2.5243 H         1 <0>         0.1338
     42 H6         -0.0707   -6.0746    2.4812 H         1 <0>         0.4241
     43 H7          4.2780   -2.4970    3.4207 H         1 <0>         0.1986
     44 H8          4.4661   -4.4529    0.4546 H         1 <0>         0.0987
     45 H9          5.5269   -3.9419    1.7895 H         1 <0>         0.1240
     46 H10         4.0387   -6.8863   -0.9062 H         1 <0>         0.4266
     47 H11         3.0132   -7.0789   -2.4228 H         1 <0>         0.1352
     48 H12         1.4650   -7.2750   -4.3231 H         1 <0>         0.1452
     49 H13        -1.7088   -8.2921   -1.6551 H         1 <0>         0.1457
     50 H14        -0.1729   -8.1120    0.2567 H         1 <0>         0.1453
     51 H15         7.1722  -10.4397    2.1708 H         1 <0>         0.1305
     52 H16         5.8124  -10.6161    3.3057 H         1 <0>         0.1269
     53 H17         7.3631  -12.8169    3.4259 H         1 <0>         0.4058
     54 H18         7.3314  -14.9992    3.0488 H         1 <0>         0.3622
     55 H19         5.7893  -14.8059    2.4567 H         1 <0>         0.3499
@<TRIPOS>BOND
     1    1    6 ar
     2    1    2 ar
     3    1   37 1
     4    2    3 ar
     5    2   38 1
     6    3    4 ar
     7    3   39 1
     8    4    5 ar
     9    4    7 1
    10    5    6 ar
    11    5   40 1
    12    6   41 1
    13    7    8 2
    14    7    9 am
    15    9   10 1
    16    9   42 1
    17   10   14 1
    18   10   11 2
    19   11   12 1
    20   12   13 2
    21   12   15 1
    22   13   14 1
    23   13   43 1
    24   15   16 1
    25   15   44 1
    26   15   45 1
    27   16   20 1
    28   16   17 2
    29   17   18 1
    30   18   19 2
    31   19   20 1
    32   19   31 1
    33   20   21 1
    34   21   22 am
    35   21   46 1
    36   22   23 2
    37   22   24 1
    38   24   29 ar
    39   24   25 ar
    40   25   26 ar
    41   25   47 1
    42   26   27 ar
    43   26   48 1
    44   27   28 ar
    45   27   30 1
    46   28   29 ar
    47   28   49 1
    48   29   50 1
    49   31   32 1
    50   32   33 1
    51   32   51 1
    52   32   52 1
    53   33   34 2
    54   33   35 am
    55   35   36 1
    56   35   53 1
    57   36   54 1
    58   36   55 1
@<TRIPOS>MOLECULE
CHEMBL430653
   41    43     0     0     0
SMALL
USER_CHARGES

@<TRIPOS>ATOM
      1 C1          0.0137    1.5360    0.0038 C.3       1 <0>        -0.1417
      2 C2          0.0334    0.0061   -0.0030 C.3       1 <0>         0.0164
      3 C3          0.7767   -0.4999    1.2349 C.3       1 <0>        -0.1421
      4 C4         -1.4022   -0.5225    0.0126 C.3       1 <0>        -0.1469
      5 C5          0.7349   -0.4816   -1.2445 C.2       1 <0>        -0.0136
      6 C6          2.0056   -0.2246   -1.5961 C.2       1 <0>        -0.0384
      7 N1          2.2380   -0.8431   -2.7674 N.2       1 <0>        -0.4508
      8 C7          1.1532   -1.4636   -3.1345 C.2       1 <0>         0.1856
      9 O1          0.2071   -1.2624   -2.2076 O.3       1 <0>        -0.1870
     10 C8          0.9910   -2.2786   -4.3917 C.3       1 <0>        -0.0260
     11 S1          1.4408   -4.0037   -4.0562 S.3       1 <0>         0.0324
     12 C9          1.2014   -4.8149   -5.6019 C.2       1 <0>        -0.2362
     13 C10         1.3813   -6.1229   -5.9340 C.2       1 <0>         0.0936
     14 N2          1.1390   -6.5219   -7.1701 N.2       1 <0>        -0.4901
     15 C11         0.7241   -5.6756   -8.0948 C.2       1 <0>         0.3600
     16 S2          0.6475   -4.1497   -7.1666 S.3       1 <0>         0.0027
     17 N3          0.4217   -5.9099   -9.4316 N.pl3     1 <0>        -0.5983
     18 C12         0.6457   -7.1659   -9.9855 C.ar      1 <0>         0.3686
     19 C13         0.4442   -7.3646  -11.3478 C.ar      1 <0>        -0.2078
     20 C14         0.6711   -8.6185  -11.8854 C.ar      1 <0>        -0.0429
     21 C15         1.0937   -9.6357  -11.0396 C.ar      1 <0>        -0.2063
     22 C16         1.2736   -9.3681   -9.6973 C.ar      1 <0>         0.1395
     23 N4          1.0542   -8.1606   -9.2126 N.ar      1 <0>        -0.4795
     24 H1          1.0365    1.9126   -0.0073 H         1 <0>         0.0640
     25 H2         -0.5159    1.8965   -0.8781 H         1 <0>         0.0607
     26 H3         -0.4937    1.8888    0.9017 H         1 <0>         0.0732
     27 H4          0.2694   -0.1471    2.1328 H         1 <0>         0.0732
     28 H5          0.7908   -1.5898    1.2300 H         1 <0>         0.0618
     29 H6          1.7995   -0.1232    1.2237 H         1 <0>         0.0641
     30 H7         -1.9318   -0.1620   -0.8693 H         1 <0>         0.0608
     31 H8         -1.3882   -1.6124    0.0077 H         1 <0>         0.0622
     32 H9         -1.9096   -0.1697    0.9105 H         1 <0>         0.0688
     33 H10         2.7131    0.3713   -1.0387 H         1 <0>         0.1869
     34 H11        -0.0460   -2.2316   -4.7239 H         1 <0>         0.1186
     35 H12         1.6405   -1.8787   -5.1703 H         1 <0>         0.1310
     36 H13         1.7205   -6.8301   -5.1916 H         1 <0>         0.1725
     37 H14         0.0546   -5.1973   -9.9778 H         1 <0>         0.4369
     38 H15         0.1146   -6.5508  -11.9768 H         1 <0>         0.1365
     39 H16         0.5227   -8.8025  -12.9392 H         1 <0>         0.1397
     40 H17         1.2794  -10.6262  -11.4279 H         1 <0>         0.1373
     41 H18         1.6021  -10.1563   -9.0360 H         1 <0>         0.1605
@<TRIPOS>BOND
     1    1    2 1
     2    1   24 1
     3    1   25 1
     4    1   26 1
     5    2    3 1
     6    2    4 1
     7    2    5 1
     8    3   27 1
     9    3   28 1
    10    3   29 1
    11    4   30 1
    12    4   31 1
    13    4   32 1
    14    5    9 1
    15    5    6 2
    16    6    7 1
    17    6   33 1
    18    7    8 2
    19    8    9 1
    20    8   10 1
    21   10   11 1
    22   10   34 1
    23   10   35 1
    24   11   12 1
    25   12   16 1
    26   12   13 2
    27   13   14 1
    28   13   36 1
    29   14   15 2
    30   15   16 1
    31   15   17 1
    32   17   18 1
    33   17   37 1
    34   18   23 ar
    35   18   19 ar
    36   19   20 ar
    37   19   38 1
    38   20   21 ar
    39   20   39 1
    40   21   22 ar
    41   21   40 1
    42   22   23 ar
    43   22   41 1
@<TRIPOS>MOLECULE
CHEMBL100012
   41    43     0     0     0
SMALL
USER_CHARGES

@<TRIPOS>ATOM
      1 C1         -2.2122    0.8079    0.1900 C.3       1 <0>        -0.1419
      2 C2         -2.0162   -0.7074    0.1101 C.3       1 <0>         0.0162
      3 C3         -1.4086   -1.2128    1.4202 C.3       1 <0>        -0.1421
      4 C4         -3.3685   -1.3851   -0.1198 C.3       1 <0>        -0.1469
      5 C5         -1.0896   -1.0345   -1.0325 C.2       1 <0>        -0.0124
      6 C6          0.1809   -0.6214   -1.1729 C.2       1 <0>        -0.0384
      7 N1          0.6514   -1.1326   -2.3243 N.2       1 <0>        -0.4498
      8 C7         -0.2897   -1.8389   -2.8830 C.2       1 <0>         0.1839
      9 O1         -1.3779   -1.8011   -2.1025 O.3       1 <0>        -0.1870
     10 C8         -0.1719   -2.5813   -4.1892 C.3       1 <0>        -0.0260
     11 S1          0.4190   -4.2674   -3.8753 S.3       1 <0>         0.0347
     12 C9          0.5028   -4.9950   -5.4779 C.2       1 <0>        -0.2383
     13 C10         0.8781   -6.2514   -5.8432 C.2       1 <0>         0.0968
     14 N2          0.8657   -6.5913   -7.1202 N.2       1 <0>        -0.5421
     15 C11         0.4953   -5.7343   -8.0541 C.2       1 <0>         0.3606
     16 S2          0.1107   -4.2898   -7.0737 S.3       1 <0>         0.0223
     17 N3          0.4203   -5.9098   -9.4307 N.pl3     1 <0>        -0.6039
     18 C12         0.6459   -7.1715   -9.9875 C.ar      1 <0>         0.1107
     19 C13         0.4522   -8.3241   -9.2288 C.ar      1 <0>        -0.0910
     20 C14         0.6884   -9.5515   -9.8251 C.ar      1 <0>        -0.1424
     21 C15         1.1054   -9.5932  -11.1429 C.ar      1 <0>         0.0757
     22 N4          1.2800   -8.4838  -11.8341 N.ar      1 <0>        -0.4588
     23 C16         1.0611   -7.2955  -11.3073 C.ar      1 <0>         0.0724
     24 H1         -1.2488    1.2908    0.3538 H         1 <0>         0.0641
     25 H2         -2.6450    1.1680   -0.7433 H         1 <0>         0.0608
     26 H3         -2.8823    1.0445    1.0164 H         1 <0>         0.0735
     27 H4         -2.0788   -0.9762    2.2466 H         1 <0>         0.0735
     28 H5         -1.2690   -2.2923    1.3633 H         1 <0>         0.0617
     29 H6         -0.4452   -0.7300    1.5840 H         1 <0>         0.0642
     30 H7         -3.8013   -1.0250   -1.0532 H         1 <0>         0.0609
     31 H8         -3.2289   -2.4646   -0.1767 H         1 <0>         0.0620
     32 H9         -4.0387   -1.1485    0.7066 H         1 <0>         0.0691
     33 H10         0.7262    0.0078   -0.4851 H         1 <0>         0.1872
     34 H11        -1.1477   -2.6224   -4.6731 H         1 <0>         0.1188
     35 H12         0.5342   -2.0639   -4.8388 H         1 <0>         0.1315
     36 H13         1.1845   -6.9662   -5.0939 H         1 <0>         0.1748
     37 H14         0.2113   -5.1566  -10.0050 H         1 <0>         0.4325
     38 H15         0.1262   -8.2618   -8.2011 H         1 <0>         0.1552
     39 H16         0.5490  -10.4656   -9.2672 H         1 <0>         0.1405
     40 H17         1.2910  -10.5478  -11.6127 H         1 <0>         0.1596
     41 H18         1.2103   -6.4094  -11.9064 H         1 <0>         0.1581
@<TRIPOS>BOND
     1    1    2 1
     2    1   24 1
     3    1   25 1
     4    1   26 1
     5    2    3 1
     6    2    4 1
     7    2    5 1
     8    3   27 1
     9    3   28 1
    10    3   29 1
    11    4   30 1
    12    4   31 1
    13    4   32 1
    14    5    9 1
    15    5    6 2
    16    6    7 1
    17    6   33 1
    18    7    8 2
    19    8    9 1
    20    8   10 1
    21   10   11 1
    22   10   34 1
    23   10   35 1
    24   11   12 1
    25   12   16 1
    26   12   13 2
    27   13   14 1
    28   13   36 1
    29   14   15 2
    30   15   16 1
    31   15   17 1
    32   17   18 1
    33   17   37 1
    34   18   23 ar
    35   18   19 ar
    36   19   20 ar
    37   19   38 1
    38   20   21 ar
    39   20   39 1
    40   21   22 ar
    41   21   40 1
    42   22   23 ar
    43   23   41 1
@<TRIPOS>MOLECULE
CHEMBL233491
   48    50     0     0     0
SMALL
USER_CHARGES

@<TRIPOS>ATOM
      1 C1         -7.1024    2.7354    3.9860 C.3       1 <0>        -0.1666
      2 C2         -5.8375    1.9179    3.9336 C.2       1 <0>         0.5109
      3 O1         -4.8861    2.2283    4.6188 O.2       1 <0>        -0.5053
      4 N1         -5.7634    0.8419    3.1254 N.am      1 <0>        -0.6111
      5 C3         -4.5967    0.0879    3.0771 C.2       1 <0>         0.2550
      6 N2         -4.3428   -0.9797    2.3518 N.2       1 <0>        -0.5353
      7 C4         -3.1734   -1.5885    2.4197 C.2       1 <0>         0.0806
      8 C5         -2.2540   -1.0639    3.2667 C.2       1 <0>        -0.2643
      9 S1         -3.1633    0.3235    3.9270 S.3       1 <0>         0.2188
     10 C6         -2.8740   -2.8123    1.5929 C.3       1 <0>         0.0456
     11 C7         -3.9242   -3.8619    1.8506 C.2       1 <0>         0.2188
     12 N3         -3.8849   -4.7840    2.7703 N.2       1 <0>        -0.2649
     13 N4         -4.9430   -5.5113    2.7115 N.2       1 <0>        -0.2839
     14 C8         -5.7213   -5.0887    1.7424 C.2       1 <0>         0.1581
     15 N5         -5.0977   -4.0193    1.1662 N.pl3     1 <0>        -0.2478
     16 N6         -5.5623   -3.2458    0.0944 N.am      1 <0>        -0.5139
     17 C9         -6.4938   -2.2945    0.3038 C.2       1 <0>         0.5730
     18 O2         -6.8630   -2.0439    1.4345 O.2       1 <0>        -0.4749
     19 C10        -7.0662   -1.5562   -0.8412 C.ar      1 <0>        -0.1212
     20 C11        -6.6483   -1.8458   -2.1415 C.ar      1 <0>        -0.0722
     21 C12        -7.1860   -1.1535   -3.2059 C.ar      1 <0>        -0.1125
     22 C13        -8.1390   -0.1724   -2.9871 C.ar      1 <0>        -0.0063
     23 C14        -8.5573    0.1197   -1.6993 C.ar      1 <0>        -0.1142
     24 C15        -8.0313   -0.5702   -0.6275 C.ar      1 <0>        -0.0412
     25 Cl1        -8.8114    0.6950   -4.3321 Cl        1 <0>        -0.0530
     26 S2         -7.2786   -5.7690    1.2772 S.3       1 <0>         0.0925
     27 C16        -7.5195   -7.1453    2.4341 C.3       1 <0>        -0.1443
     28 C17        -8.8334   -7.8230    2.1419 C.2       1 <0>         0.5369
     29 O3         -9.5380   -7.4175    1.2418 O.2       1 <0>        -0.5101
     30 N7         -9.2256   -8.8798    2.8808 N.am      1 <0>        -0.5699
     31 N8        -10.4165   -9.4941    2.6160 N.3       1 <0>        -0.6004
     32 H1         -6.9745    3.5580    4.6896 H         1 <0>         0.1059
     33 H2         -7.3180    3.1350    2.9951 H         1 <0>         0.0982
     34 H3         -7.9296    2.1044    4.3111 H         1 <0>         0.0986
     35 H4         -6.5244    0.5937    2.5774 H         1 <0>         0.4258
     36 H5         -1.2476   -1.3925    3.4804 H         1 <0>         0.1981
     37 H6         -2.8777   -2.5465    0.5358 H         1 <0>         0.0985
     38 H7         -1.8941   -3.2042    1.8655 H         1 <0>         0.1237
     39 H8         -5.2135   -3.3949   -0.7983 H         1 <0>         0.4265
     40 H9         -5.9050   -2.6103   -2.3133 H         1 <0>         0.1349
     41 H10        -6.8632   -1.3764   -4.2121 H         1 <0>         0.1451
     42 H11        -9.3003    0.8860   -1.5348 H         1 <0>         0.1457
     43 H12        -8.3620   -0.3452    0.3758 H         1 <0>         0.1467
     44 H13        -6.7071   -7.8629    2.3193 H         1 <0>         0.1305
     45 H14        -7.5263   -6.7645    3.4554 H         1 <0>         0.1269
     46 H15        -8.6621   -9.2041    3.6007 H         1 <0>         0.4058
     47 H16       -10.5741  -10.2650    3.2476 H         1 <0>         0.3622
     48 H17       -11.1795   -8.8348    2.6526 H         1 <0>         0.3500
@<TRIPOS>BOND
     1    1    2 1
     2    1   32 1
     3    1   33 1
     4    1   34 1
     5    2    3 2
     6    2    4 am
     7    4    5 1
     8    4   35 1
     9    5    9 1
    10    5    6 2
    11    6    7 1
    12    7    8 2
    13    7   10 1
    14    8    9 1
    15    8   36 1
    16   10   11 1
    17   10   37 1
    18   10   38 1
    19   11   15 1
    20   11   12 2
    21   12   13 1
    22   13   14 2
    23   14   15 1
    24   14   26 1
    25   15   16 1
    26   16   17 am
    27   16   39 1
    28   17   18 2
    29   17   19 1
    30   19   24 ar
    31   19   20 ar
    32   20   21 ar
    33   20   40 1
    34   21   22 ar
    35   21   41 1
    36   22   23 ar
    37   22   25 1
    38   23   24 ar
    39   23   42 1
    40   24   43 1
    41   26   27 1
    42   27   28 1
    43   27   44 1
    44   27   45 1
    45   28   29 2
    46   28   30 am
    47   30   31 1
    48   30   46 1
    49   31   47 1
    50   31   48 1
@<TRIPOS>MOLECULE
CHEMBL186120
   32    33     0     0     0
SMALL
USER_CHARGES

@<TRIPOS>ATOM
      1 C1         -0.1090    1.6835   -0.0277 C.3       1 <0>        -0.1493
      2 C2         -0.0579    0.1550   -0.0700 C.3       1 <0>        -0.0029
      3 C3          0.7137   -0.3633    1.1454 C.3       1 <0>        -0.1493
      4 C4         -1.4606   -0.3954   -0.0465 C.2       1 <0>        -0.1974
      5 C5         -2.0977   -1.1773   -0.9521 C.2       1 <0>         0.0596
      6 N1         -3.3432   -1.5198   -0.6784 N.2       1 <0>        -0.5139
      7 C6         -3.9322   -1.1158    0.4263 C.2       1 <0>         0.2696
      8 S1         -2.7386   -0.2038    1.1854 S.3       1 <0>         0.1384
      9 N2         -5.2246   -1.3823    0.8634 N.am      1 <0>        -0.5956
     10 C7         -6.0446   -2.1469    0.1155 C.2       1 <0>         0.6415
     11 O1         -5.6542   -2.6033   -0.9408 O.2       1 <0>        -0.4883
     12 O2         -7.2968   -2.4051    0.5390 O.3       1 <0>        -0.3009
     13 C8         -8.1223   -3.0944   -0.2925 C.ar      1 <0>         0.0957
     14 C9         -9.1052   -2.4254   -1.0071 C.ar      1 <0>        -0.1130
     15 C10        -9.9426   -3.1280   -1.8518 C.ar      1 <0>        -0.1066
     16 C11        -9.8015   -4.4970   -1.9853 C.ar      1 <0>        -0.1098
     17 C12        -8.8226   -5.1661   -1.2742 C.ar      1 <0>        -0.1056
     18 C13        -7.9794   -4.4672   -0.4322 C.ar      1 <0>        -0.1115
     19 H1          0.9055    2.0816   -0.0447 H         1 <0>         0.0668
     20 H2         -0.6587    2.0528   -0.8935 H         1 <0>         0.0605
     21 H3         -0.6103    2.0052    0.8852 H         1 <0>         0.0574
     22 H4          0.4434   -0.1667   -0.9828 H         1 <0>         0.0985
     23 H5          0.2124   -0.0416    2.0582 H         1 <0>         0.0573
     24 H6          0.7501   -1.4523    1.1152 H         1 <0>         0.0605
     25 H7          1.7283    0.0348    1.1284 H         1 <0>         0.0669
     26 H8         -1.6085   -1.5053   -1.8573 H         1 <0>         0.1764
     27 H9         -5.5362   -1.0179    1.7066 H         1 <0>         0.4344
     28 H10        -9.2160   -1.3561   -0.9028 H         1 <0>         0.1324
     29 H11       -10.7082   -2.6077   -2.4080 H         1 <0>         0.1344
     30 H12       -10.4574   -5.0446   -2.6460 H         1 <0>         0.1314
     31 H13        -8.7146   -6.2354   -1.3800 H         1 <0>         0.1331
     32 H14        -7.2122   -4.9897    0.1199 H         1 <0>         0.1293
@<TRIPOS>BOND
     1    1    2 1
     2    1   19 1
     3    1   20 1
     4    1   21 1
     5    2    3 1
     6    2    4 1
     7    2   22 1
     8    3   23 1
     9    3   24 1
    10    3   25 1
    11    4    8 1
    12    4    5 2
    13    5    6 1
    14    5   26 1
    15    6    7 2
    16    7    8 1
    17    7    9 1
    18    9   10 am
    19    9   27 1
    20   10   11 2
    21   10   12 1
    22   12   13 1
    23   13   18 ar
    24   13   14 ar
    25   14   15 ar
    26   14   28 1
    27   15   16 ar
    28   15   29 1
    29   16   17 ar
    30   16   30 1
    31   17   18 ar
    32   17   31 1
    33   18   32 1
@<TRIPOS>MOLECULE
CHEMBL181114
   57    61     0     0     0
SMALL
USER_CHARGES

@<TRIPOS>ATOM
      1 C1         -2.3544    1.9651    6.1691 C.2       1 <0>        -0.1936
      2 C2         -1.3856    2.4629    7.0202 C.2       1 <0>        -0.0061
      3 C3         -0.7709    3.6293    6.7058 C.2       1 <0>        -0.7539
      4 S1         -1.5639    4.0613    5.1658 S.3       1 <0>         0.1697
      5 C4         -2.6610    2.6581    5.0453 C.2       1 <0>        -0.1290
      6 S2          0.4847    4.4949    7.5884 S.o2      1 <0>         2.6215
      7 O1          0.3954    5.8563    7.1911 O.2       1 <0>        -0.9259
      8 O2          0.3800    4.0891    8.9462 O.2       1 <0>        -0.9271
      9 C5          2.0368    3.9004    7.0034 C.ar      1 <0>        -0.6876
     10 C6          2.6344    2.8137    7.6154 C.ar      1 <0>         0.0236
     11 C7          3.8511    2.3455    7.1597 C.ar      1 <0>        -0.1756
     12 C8          4.4745    2.9671    6.0851 C.ar      1 <0>         0.2436
     13 C9          3.8712    4.0581    5.4724 C.ar      1 <0>        -0.1799
     14 C10         2.6519    4.5180    5.9298 C.ar      1 <0>         0.0227
     15 N1          5.7061    2.4961    5.6217 N.pl3     1 <0>        -0.6716
     16 C11         6.3735    1.5083    6.3177 C.2       1 <0>         0.4659
     17 C12         6.6987    0.3320    5.7080 C.2       1 <0>        -0.2694
     18 C13         7.3781   -0.6564    6.4384 C.2       1 <0>         0.4746
     19 N2          7.6977   -0.4465    7.7035 N.2       1 <0>        -0.5375
     20 C14         7.3821    0.7071    8.3115 C.2       1 <0>         0.3313
     21 N3          6.7242    1.6984    7.6308 N.pl3     1 <0>        -0.3451
     22 N4          6.5408    2.7700    8.5120 N.2       1 <0>        -0.2907
     23 C15         7.0641    2.4573    9.6750 C.2       1 <0>         0.1220
     24 C16         7.5944    1.1756    9.6009 C.2       1 <0>        -0.2041
     25 Cl1         8.3938    0.3213   10.8833 Cl        1 <0>        -0.0251
     26 N5          7.7141   -1.8555    5.8310 N.pl3     1 <0>        -0.6996
     27 C17         8.4230   -2.8881    6.5909 C.3       1 <0>         0.1492
     28 C18         9.9273   -2.6124    6.5455 C.3       1 <0>        -0.1296
     29 C19        10.6676   -3.6909    7.3391 C.3       1 <0>        -0.1391
     30 C20        10.3817   -5.0627    6.7248 C.3       1 <0>         0.0237
     31 C21         8.8774   -5.3384    6.7701 C.3       1 <0>        -0.1372
     32 C22         8.1371   -4.2599    5.9766 C.3       1 <0>        -0.1283
     33 N6         11.0925   -6.0982    7.4867 N.4       1 <0>        -0.6369
     34 H1         -2.8563    1.0356    6.3940 H         1 <0>         0.1469
     35 H2         -1.1227    1.9306    7.9224 H         1 <0>         0.1490
     36 H3         -3.3817    2.4223    4.2762 H         1 <0>         0.1983
     37 H4          2.1492    2.3309    8.4508 H         1 <0>         0.1453
     38 H5          4.3176    1.4973    7.6385 H         1 <0>         0.1202
     39 H6          4.3531    4.5437    4.6367 H         1 <0>         0.1408
     40 H7          2.1804    5.3637    5.4514 H         1 <0>         0.1507
     41 H8          6.0919    2.8633    4.8110 H         1 <0>         0.4312
     42 H9          6.4358    0.1625    4.6743 H         1 <0>         0.1689
     43 H10         7.0729    3.0905   10.5499 H         1 <0>         0.2060
     44 H11         7.4800   -2.0112    4.9027 H         1 <0>         0.4168
     45 H12         8.0824   -2.8756    7.6262 H         1 <0>         0.1025
     46 H13        10.2679   -2.6250    5.5102 H         1 <0>         0.0755
     47 H14        10.1309   -1.6352    6.9832 H         1 <0>         0.0931
     48 H15        11.7392   -3.4945    7.3068 H         1 <0>         0.0921
     49 H16        10.3269   -3.6783    8.3744 H         1 <0>         0.0932
     50 H17        10.7223   -5.0753    5.6894 H         1 <0>         0.1428
     51 H18         8.6738   -6.3157    6.3325 H         1 <0>         0.0948
     52 H19         8.5368   -5.3258    7.8055 H         1 <0>         0.0932
     53 H20         7.0655   -4.4563    6.0089 H         1 <0>         0.0935
     54 H21         8.4778   -4.2725    4.9412 H         1 <0>         0.0819
     55 H22        10.7772   -6.0865    8.4451 H         1 <0>         0.4344
     56 H23        10.9040   -7.0028    7.0816 H         1 <0>         0.4365
     57 H24        12.0845   -5.9164    7.4568 H         1 <0>         0.4373
@<TRIPOS>BOND
     1    1    5 2
     2    1    2 1
     3    1   34 1
     4    2    3 2
     5    2   35 1
     6    3    4 1
     7    3    6 1
     8    4    5 1
     9    5   36 1
    10    6    7 2
    11    6    8 2
    12    6    9 1
    13    9   14 ar
    14    9   10 ar
    15   10   11 ar
    16   10   37 1
    17   11   12 ar
    18   11   38 1
    19   12   13 ar
    20   12   15 1
    21   13   14 ar
    22   13   39 1
    23   14   40 1
    24   15   16 1
    25   15   41 1
    26   16   21 1
    27   16   17 2
    28   17   18 1
    29   17   42 1
    30   18   19 2
    31   18   26 1
    32   19   20 1
    33   20   24 2
    34   20   21 1
    35   21   22 1
    36   22   23 2
    37   23   24 1
    38   23   43 1
    39   24   25 1
    40   26   27 1
    41   26   44 1
    42   27   32 1
    43   27   28 1
    44   27   45 1
    45   28   29 1
    46   28   46 1
    47   28   47 1
    48   29   30 1
    49   29   48 1
    50   29   49 1
    51   30   31 1
    52   30   33 1
    53   30   50 1
    54   31   32 1
    55   31   51 1
    56   31   52 1
    57   32   53 1
    58   32   54 1
    59   33   55 1
    60   33   56 1
    61   33   57 1
@<TRIPOS>MOLECULE
CHEMBL181790
   30    32     0     0     0
SMALL
USER_CHARGES

@<TRIPOS>ATOM
      1 C1         -0.0163    1.3496    0.0095 C.2       1 <0>         0.0923
      2 C2          1.2603    1.7682   -0.0005 C.2       1 <0>        -0.1845
      3 C3          2.1063    0.6169    0.0293 C.2       1 <0>         0.1117
      4 N1          1.3406   -0.4273    0.0124 N.2       1 <0>        -0.2683
      5 N2          0.0021   -0.0041    0.0020 N.pl3     1 <0>        -0.4777
      6 H1         -0.7765   -0.5826   -0.0087 H         1 <0>         0.4466
      7 C4          3.6066    0.7229    0.1031 C.3       1 <0>        -0.0410
      8 C5          4.1096    1.9870   -0.5965 C.3       1 <0>        -0.0415
      9 C6          3.2506    3.1757   -0.2858 C.2       1 <0>        -0.1377
     10 C7          1.8969    3.0991   -0.0234 C.2       1 <0>         0.1063
     11 N3          1.4524    4.3500    0.1680 N.pl3     1 <0>        -0.2748
     12 N4          2.4375    5.1799    0.0751 N.2       1 <0>        -0.2627
     13 C8          3.5622    4.5371   -0.1963 C.2       1 <0>         0.0141
     14 C9          4.8980    5.1436   -0.3713 C.2       1 <0>         0.6107
     15 O1          5.8576    4.4395   -0.6187 O.2       1 <0>        -0.5267
     16 N5          5.0526    6.4775   -0.2565 N.am      1 <0>        -0.8404
     17 C10         0.0611    4.7187    0.4413 C.3       1 <0>         0.0808
     18 C11        -0.1795    4.7170    1.9522 C.3       1 <0>         0.4403
     19 F1          0.6761    5.6409    2.5618 F         1 <0>        -0.1670
     20 F2         -1.5081    5.0691    2.2132 F         1 <0>        -0.1693
     21 F3          0.0734    3.4395    2.4633 F         1 <0>        -0.1712
     22 H2         -0.8950    1.9773    0.0252 H         1 <0>         0.1764
     23 H3          3.9115    0.7486    1.1493 H         1 <0>         0.0921
     24 H4          4.0500   -0.1503   -0.3754 H         1 <0>         0.0952
     25 H5          5.1295    2.1911   -0.2706 H         1 <0>         0.1030
     26 H6          4.1093    1.8206   -1.6737 H         1 <0>         0.0815
     27 H7          4.2869    7.0394   -0.0590 H         1 <0>         0.4081
     28 H8          5.9296    6.8758   -0.3714 H         1 <0>         0.4084
     29 H9         -0.1359    5.7141    0.0431 H         1 <0>         0.1537
     30 H10        -0.6055    3.9989   -0.0336 H         1 <0>         0.1418
@<TRIPOS>BOND
     1    1    5 1
     2    1    2 2
     3    1   22 1
     4    2   10 1
     5    2    3 1
     6    3    4 2
     7    3    7 1
     8    4    5 1
     9    5    6 1
    10    7    8 1
    11    7   23 1
    12    7   24 1
    13    8    9 1
    14    8   25 1
    15    8   26 1
    16    9   13 1
    17    9   10 2
    18   10   11 1
    19   11   12 1
    20   11   17 1
    21   12   13 2
    22   13   14 1
    23   14   15 2
    24   14   16 am
    25   16   27 1
    26   16   28 1
    27   17   18 1
    28   17   29 1
    29   17   30 1
    30   18   19 1
    31   18   20 1
    32   18   21 1
@<TRIPOS>MOLECULE
CHEMBL181790
   30    32     0     0     0
SMALL
USER_CHARGES

@<TRIPOS>ATOM
      1 C1         -0.0157    1.3079    0.0092 C.2       1 <0>         0.0804
      2 C2         -1.3436    1.7156    0.0180 C.2       1 <0>        -0.1966
      3 C3         -2.1416    0.5860   -0.0130 C.2       1 <0>         0.1308
      4 N1         -1.3217   -0.4712   -0.0010 N.pl3     1 <0>        -0.4474
      5 N2          0.0021   -0.0041    0.0020 N.2       1 <0>        -0.2861
      6 H1         -1.5953   -1.4018    0.0051 H         1 <0>         0.4452
      7 C4         -3.6440    0.6448   -0.0624 C.3       1 <0>        -0.0602
      8 C5         -4.1791    1.8917    0.6457 C.3       1 <0>        -0.0363
      9 C6         -3.3464    3.0987    0.3308 C.2       1 <0>        -0.1522
     10 C7         -1.9950    3.0381    0.0519 C.2       1 <0>         0.1153
     11 N3         -1.5688    4.2954   -0.1406 N.pl3     1 <0>        -0.2730
     12 N4         -2.5629    5.1129   -0.0327 N.2       1 <0>        -0.2640
     13 C8         -3.6765    4.4550    0.2508 C.2       1 <0>         0.0159
     14 C9         -5.0173    5.0440    0.4457 C.2       1 <0>         0.6110
     15 O1         -5.9646    4.3270    0.7031 O.2       1 <0>        -0.5290
     16 N5         -5.1902    6.3763    0.3381 N.am      1 <0>        -0.8401
     17 C10        -0.1856    4.6826   -0.4291 C.3       1 <0>         0.0802
     18 C11         0.0373    4.6885   -1.9427 C.3       1 <0>         0.4409
     19 F1         -0.8371    5.6034   -2.5392 F         1 <0>        -0.1686
     20 F2          1.3581    5.0582   -2.2182 F         1 <0>        -0.1687
     21 F3         -0.2054    3.4095   -2.4549 F         1 <0>        -0.1702
     22 H2          0.8484    1.9557    0.0045 H         1 <0>         0.1824
     23 H3         -3.9659    0.6604   -1.1036 H         1 <0>         0.0967
     24 H4         -4.0514   -0.2426    0.4221 H         1 <0>         0.0930
     25 H5         -5.2047    2.0721    0.3238 H         1 <0>         0.1041
     26 H6         -4.1689    1.7225    1.7224 H         1 <0>         0.0816
     27 H7         -4.4343    6.9484    0.1326 H         1 <0>         0.4085
     28 H8         -6.0705    6.7630    0.4660 H         1 <0>         0.4083
     29 H9          0.0035    5.6791   -0.0300 H         1 <0>         0.1532
     30 H10         0.4957    3.9698    0.0357 H         1 <0>         0.1447
@<TRIPOS>BOND
     1    1    5 2
     2    1   22 1
     3    1    2 1
     4    2   10 1
     5    2    3 2
     6    3    7 1
     7    3    4 1
     8    4    5 1
     9    4    6 1
    10    7    8 1
    11    7   23 1
    12    7   24 1
    13    8    9 1
    14    8   25 1
    15    8   26 1
    16    9   13 1
    17    9   10 2
    18   10   11 1
    19   11   12 1
    20   11   17 1
    21   12   13 2
    22   13   14 1
    23   14   15 2
    24   14   16 am
    25   16   27 1
    26   16   28 1
    27   17   18 1
    28   17   29 1
    29   17   30 1
    30   18   19 1
    31   18   20 1
    32   18   21 1
@<TRIPOS>MOLECULE
CHEMBL139527
   53    58     0     0     0
SMALL
USER_CHARGES

@<TRIPOS>ATOM
      1 C1         -0.0310    0.9500    2.7548 C.ar      1 <0>        -0.1052
      2 C2          0.3398    1.7672    1.7016 C.ar      1 <0>        -0.1126
      3 C3          0.9725    1.2325    0.5949 C.ar      1 <0>        -0.0867
      4 C4          1.2313   -0.1309    0.5516 C.ar      1 <0>        -0.0789
      5 C5          0.8547   -0.9536    1.6187 C.ar      1 <0>        -0.1146
      6 C6          0.2260   -0.4107    2.7145 C.ar      1 <0>        -0.0934
      7 C7          1.1584   -2.4251    1.5217 C.3       1 <0>         0.0572
      8 N1          2.4173   -2.6269    0.8011 N.4       1 <0>        -0.0695
      9 C8          2.4429   -1.9718   -0.4241 C.2       1 <0>        -0.0289
     10 C9          1.9035   -0.7720   -0.5996 C.2       1 <0>        -0.0831
     11 N2          2.5955   -3.9647    0.5901 N.2       1 <0>        -1.0258
     12 S1          3.9094   -4.7373    1.2374 S.o2      1 <0>         2.6048
     13 O1          5.0572   -4.1790    0.6127 O.2       1 <0>        -1.0243
     14 O2          3.7304   -4.7311    2.6470 O.2       1 <0>        -1.0241
     15 C10         3.8273   -6.4216    0.7267 C.ar      1 <0>        -0.6617
     16 C11         3.1509   -7.3448    1.5045 C.ar      1 <0>        -0.0022
     17 C12         3.0821   -8.6649    1.1107 C.ar      1 <0>        -0.1602
     18 C13         3.6973   -9.0690   -0.0765 C.ar      1 <0>         0.2005
     19 C14         4.3783   -8.1316   -0.8568 C.ar      1 <0>        -0.2119
     20 C15         4.4345   -6.8138   -0.4533 C.ar      1 <0>         0.0042
     21 N3          3.6335  -10.3769   -0.4731 N.2       1 <0>        -0.5504
     22 C16         3.3574  -10.6706   -1.7189 C.2       1 <0>         0.2940
     23 C17         3.2914  -12.0249   -2.1296 C.2       1 <0>        -0.3534
     24 C18         3.0001  -12.5241   -3.4877 C.ar      1 <0>         0.0146
     25 C19         3.0451  -13.9244   -3.4021 C.ar      1 <0>         0.1018
     26 C20         2.8048  -14.6801   -4.5498 C.ar      1 <0>        -0.1026
     27 C21         2.5298  -14.0927   -5.7432 C.ar      1 <0>        -0.0823
     28 C22         2.4757  -12.6847   -5.8710 C.ar      1 <0>         0.0488
     29 C23         2.7189  -11.9287   -4.7063 C.ar      1 <0>        -0.1295
     30 S2          2.5552  -10.2666   -5.3032 S.3       1 <0>         0.0589
     31 C24         2.2057  -10.6269   -6.9096 C.2       1 <0>         0.0398
     32 N4          2.2211  -11.9269   -6.9584 N.2       1 <0>        -0.5027
     33 N5          3.3409  -14.2617   -2.0942 N.pl3     1 <0>        -0.6234
     34 H1          3.4308  -15.1694   -1.7642 H         1 <0>         0.4028
     35 C25         3.4934  -13.1439   -1.3370 C.2       1 <0>         0.4908
     36 O3          3.7921  -13.1260   -0.0179 O.3       1 <0>        -0.6337
     37 H2         -0.5208    1.3771    3.6174 H         1 <0>         0.1312
     38 H3          0.1339    2.8265    1.7442 H         1 <0>         0.1307
     39 H4          1.2623    1.8690   -0.2281 H         1 <0>         0.1348
     40 H5         -0.0659   -1.0424    3.5404 H         1 <0>         0.1366
     41 H6          1.2438   -2.8441    2.5243 H         1 <0>         0.1313
     42 H7          0.3512   -2.9270    0.9882 H         1 <0>         0.1406
     43 H8          2.9193   -2.4563   -1.2636 H         1 <0>         0.1818
     44 H9          1.9537   -0.2767   -1.5580 H         1 <0>         0.1628
     45 H10         2.6760   -7.0310    2.4224 H         1 <0>         0.1301
     46 H11         2.5542   -9.3844    1.7189 H         1 <0>         0.1286
     47 H12         4.8562   -8.4371   -1.7758 H         1 <0>         0.1214
     48 H13         4.9572   -6.0872   -1.0576 H         1 <0>         0.1276
     49 H14         3.1801   -9.8804   -2.4334 H         1 <0>         0.0776
     50 H15         2.8385  -15.7578   -4.4880 H         1 <0>         0.1233
     51 H16         2.3495  -14.7114   -6.6099 H         1 <0>         0.1253
     52 H17         2.0136   -9.9358   -7.7170 H         1 <0>         0.2122
     53 H18         3.1771   -2.2845    1.3699 H         1 <0>         0.3474
@<TRIPOS>BOND
     1    1    6 ar
     2    1    2 ar
     3    1   37 1
     4    2    3 ar
     5    2   38 1
     6    3    4 ar
     7    3   39 1
     8    4   10 1
     9    4    5 ar
    10    5    6 ar
    11    5    7 1
    12    6   40 1
    13    7    8 1
    14    7   41 1
    15    7   42 1
    16    8    9 1
    17    8   11 1
    18    8   53 1
    19    9   10 2
    20    9   43 1
    21   10   44 1
    22   11   12 1
    23   12   13 2
    24   12   14 2
    25   12   15 1
    26   15   20 ar
    27   15   16 ar
    28   16   17 ar
    29   16   45 1
    30   17   18 ar
    31   17   46 1
    32   18   19 ar
    33   18   21 1
    34   19   20 ar
    35   19   47 1
    36   20   48 1
    37   21   22 2
    38   22   23 1
    39   22   49 1
    40   23   35 2
    41   23   24 1
    42   24   29 ar
    43   24   25 ar
    44   25   26 ar
    45   25   33 1
    46   26   27 ar
    47   26   50 1
    48   27   28 ar
    49   27   51 1
    50   28   32 1
    51   28   29 ar
    52   29   30 1
    53   30   31 1
    54   31   32 2
    55   31   52 1
    56   33   34 1
    57   33   35 1
    58   35   36 1
@<TRIPOS>MOLECULE
CHEMBL139527
   54    59     0     0     0
SMALL
USER_CHARGES

@<TRIPOS>ATOM
      1 C1         -0.0167    1.3802    0.0096 C.ar      1 <0>        -0.1251
      2 C2          1.1676    2.0963    0.0022 C.ar      1 <0>        -0.1127
      3 C3          2.3788    1.4350   -0.0224 C.ar      1 <0>        -0.1151
      4 C4          2.4042    0.0414   -0.0433 C.ar      1 <0>        -0.0251
      5 C5          1.2044   -0.6757   -0.0152 C.ar      1 <0>        -0.1109
      6 C6          0.0021   -0.0041    0.0020 C.ar      1 <0>        -0.0983
      7 C7          1.2455   -2.1827    0.0208 C.3       1 <0>         0.1787
      8 N1          2.4788   -2.6425   -0.6277 N.pl3     1 <0>        -0.4184
      9 C8          3.6778   -2.0037   -0.3566 C.2       1 <0>         0.1268
     10 C9          3.6828   -0.6933   -0.0809 C.2       1 <0>        -0.1995
     11 N2          2.4438   -3.7234   -1.5184 N.pl3     1 <0>        -0.9005
     12 S1          2.1880   -3.4580   -3.1329 S.o2      1 <0>         2.6868
     13 O1          2.3506   -4.7119   -3.7813 O.2       1 <0>        -0.9493
     14 O2          0.9923   -2.6969   -3.2349 O.2       1 <0>        -0.9440
     15 C10         3.4943   -2.4226   -3.7040 C.ar      1 <0>        -0.6898
     16 C11         3.3525   -1.0469   -3.6585 C.ar      1 <0>         0.0118
     17 C12         4.3711   -0.2302   -4.1035 C.ar      1 <0>        -0.1293
     18 C13         5.5479   -0.7951   -4.6008 C.ar      1 <0>         0.1610
     19 C14         5.6841   -2.1846   -4.6437 C.ar      1 <0>        -0.1821
     20 C15         4.6593   -2.9890   -4.1905 C.ar      1 <0>         0.0016
     21 N3          6.5623    0.0089   -5.0443 N.2       1 <0>        -0.5017
     22 C16         7.7991   -0.2467   -4.6986 C.2       1 <0>         0.2595
     23 C17         8.8494    0.5859   -5.1578 C.2       1 <0>        -0.1888
     24 C18        10.2888    0.4349   -4.8679 C.ar      1 <0>        -0.0158
     25 C19        10.9299    1.4890   -5.5373 C.ar      1 <0>         0.1094
     26 C20        12.3169    1.6052   -5.4437 C.ar      1 <0>        -0.0959
     27 C21        13.0572    0.7240   -4.7225 C.ar      1 <0>        -0.0421
     28 C22        12.4490   -0.3520   -4.0340 C.ar      1 <0>         0.0736
     29 C23        11.0470   -0.4615   -4.1330 C.ar      1 <0>        -0.1290
     30 S2         10.7179   -1.9003   -3.1495 S.3       1 <0>         0.0986
     31 C24        12.3028   -2.2464   -2.7013 C.2       1 <0>         0.0687
     32 N4         13.0097   -1.3174   -3.2757 N.2       1 <0>        -0.5022
     33 N5          9.9619    2.2312   -6.1884 N.pl3     1 <0>        -0.5716
     34 H1         10.1382    3.0186   -6.7268 H         1 <0>         0.4248
     35 C25         8.7299    1.7002   -5.9733 C.2       1 <0>         0.3515
     36 O3          7.5701    2.1841   -6.4734 O.3       1 <0>        -0.4403
     37 H2         -0.9609    1.9043    0.0260 H         1 <0>         0.1230
     38 H3          1.1439    3.1759    0.0153 H         1 <0>         0.1220
     39 H4          3.3025    1.9946   -0.0259 H         1 <0>         0.1233
     40 H5         -0.9256   -0.5570    0.0096 H         1 <0>         0.1253
     41 H6          1.2289   -2.5234    1.0561 H         1 <0>         0.0770
     42 H7          0.3825   -2.5839   -0.5106 H         1 <0>         0.0983
     43 H8          4.6037   -2.5596   -0.3678 H         1 <0>         0.1415
     44 H9          4.6131   -0.1799    0.1123 H         1 <0>         0.1371
     45 H10         2.5694   -4.6272   -1.1894 H         1 <0>         0.4174
     46 H11         2.4420   -0.6115   -3.2741 H         1 <0>         0.1395
     47 H12         4.2590    0.8433   -4.0678 H         1 <0>         0.1359
     48 H13         6.5912   -2.6281   -5.0269 H         1 <0>         0.1310
     49 H14         4.7648   -4.0634   -4.2192 H         1 <0>         0.1402
     50 H15         8.0185   -1.0921   -4.0634 H         1 <0>         0.1076
     51 H16        12.8139    2.4149   -5.9573 H         1 <0>         0.1397
     52 H17        14.1292    0.8466   -4.6740 H         1 <0>         0.1438
     53 H18        12.6536   -3.0567   -2.0793 H         1 <0>         0.2246
     54 H19         7.1388    2.8370   -5.9053 H         1 <0>         0.4075
@<TRIPOS>BOND
     1    1    6 ar
     2    1    2 ar
     3    1   37 1
     4    2    3 ar
     5    2   38 1
     6    3    4 ar
     7    3   39 1
     8    4   10 1
     9    4    5 ar
    10    5    6 ar
    11    5    7 1
    12    6   40 1
    13    7    8 1
    14    7   41 1
    15    7   42 1
    16    8    9 1
    17    8   11 1
    18    9   10 2
    19    9   43 1
    20   10   44 1
    21   11   12 1
    22   11   45 1
    23   12   13 2
    24   12   14 2
    25   12   15 1
    26   15   20 ar
    27   15   16 ar
    28   16   17 ar
    29   16   46 1
    30   17   18 ar
    31   17   47 1
    32   18   19 ar
    33   18   21 1
    34   19   20 ar
    35   19   48 1
    36   20   49 1
    37   21   22 2
    38   22   23 1
    39   22   50 1
    40   23   35 2
    41   23   24 1
    42   24   29 ar
    43   24   25 ar
    44   25   26 ar
    45   25   33 1
    46   26   27 ar
    47   26   51 1
    48   27   28 ar
    49   27   52 1
    50   28   32 1
    51   28   29 ar
    52   29   30 1
    53   30   31 1
    54   31   32 2
    55   31   53 1
    56   33   34 1
    57   33   35 1
    58   35   36 1
    59   36   54 1
@<TRIPOS>MOLECULE
CHEMBL139527
   53    58     0     0     0
SMALL
USER_CHARGES

@<TRIPOS>ATOM
      1 C1         -0.0167    1.3802    0.0096 C.ar      1 <0>        -0.1300
      2 C2          1.1676    2.0963    0.0022 C.ar      1 <0>        -0.1127
      3 C3          2.3788    1.4350   -0.0224 C.ar      1 <0>        -0.1140
      4 C4          2.4042    0.0414   -0.0433 C.ar      1 <0>        -0.0184
      5 C5          1.2044   -0.6757   -0.0152 C.ar      1 <0>        -0.1131
      6 C6          0.0021   -0.0041    0.0020 C.ar      1 <0>        -0.0999
      7 C7          1.2455   -2.1827    0.0208 C.3       1 <0>         0.1818
      8 N1          2.4788   -2.6425   -0.6277 N.pl3     1 <0>        -0.4184
      9 C8          3.6778   -2.0037   -0.3566 C.2       1 <0>         0.1325
     10 C9          3.6828   -0.6933   -0.0809 C.2       1 <0>        -0.2017
     11 N2          2.4438   -3.7234   -1.5184 N.pl3     1 <0>        -0.9035
     12 S1          2.1880   -3.4580   -3.1329 S.o2      1 <0>         2.6886
     13 O1          2.3506   -4.7119   -3.7813 O.2       1 <0>        -0.9600
     14 O2          0.9923   -2.6969   -3.2349 O.2       1 <0>        -0.9547
     15 C10         3.4943   -2.4226   -3.7040 C.ar      1 <0>        -0.7217
     16 C11         3.3525   -1.0469   -3.6585 C.ar      1 <0>         0.0142
     17 C12         4.3711   -0.2302   -4.1035 C.ar      1 <0>        -0.1563
     18 C13         5.5479   -0.7951   -4.6008 C.ar      1 <0>         0.2141
     19 C14         5.6841   -2.1846   -4.6437 C.ar      1 <0>        -0.2134
     20 C15         4.6593   -2.9890   -4.1905 C.ar      1 <0>         0.0056
     21 N3          6.5623    0.0089   -5.0443 N.2       1 <0>        -0.5534
     22 C16         7.7991   -0.2467   -4.6986 C.2       1 <0>         0.2978
     23 C17         8.8494    0.5859   -5.1578 C.2       1 <0>        -0.3527
     24 C18        10.2888    0.4349   -4.8679 C.ar      1 <0>         0.0134
     25 C19        10.9299    1.4890   -5.5373 C.ar      1 <0>         0.1045
     26 C20        12.3169    1.6052   -5.4437 C.ar      1 <0>        -0.1031
     27 C21        13.0572    0.7240   -4.7225 C.ar      1 <0>        -0.0799
     28 C22        12.4490   -0.3520   -4.0340 C.ar      1 <0>         0.0489
     29 C23        11.0470   -0.4615   -4.1330 C.ar      1 <0>        -0.1288
     30 S2         10.7179   -1.9003   -3.1495 S.3       1 <0>         0.0562
     31 C24        12.3028   -2.2464   -2.7013 C.2       1 <0>         0.0416
     32 N4         13.0097   -1.3174   -3.2757 N.2       1 <0>        -0.5018
     33 N5          9.9619    2.2312   -6.1884 N.pl3     1 <0>        -0.6237
     34 H1         10.1382    3.0186   -6.7268 H         1 <0>         0.4036
     35 C25         8.7299    1.7002   -5.9733 C.2       1 <0>         0.4924
     36 O3          7.5701    2.1841   -6.4734 O.3       1 <0>        -0.6313
     37 H2         -0.9609    1.9043    0.0260 H         1 <0>         0.1202
     38 H3          1.1439    3.1759    0.0153 H         1 <0>         0.1208
     39 H4          3.3025    1.9946   -0.0259 H         1 <0>         0.1250
     40 H5         -0.9256   -0.5570    0.0096 H         1 <0>         0.1226
     41 H6          1.2289   -2.5234    1.0561 H         1 <0>         0.0731
     42 H7          0.3825   -2.5839   -0.5106 H         1 <0>         0.0956
     43 H8          4.6037   -2.5596   -0.3678 H         1 <0>         0.1420
     44 H9          4.6131   -0.1799    0.1123 H         1 <0>         0.1384
     45 H10         2.5694   -4.6272   -1.1894 H         1 <0>         0.4129
     46 H11         2.4420   -0.6115   -3.2741 H         1 <0>         0.1273
     47 H12         4.2590    0.8433   -4.0678 H         1 <0>         0.1287
     48 H13         6.5912   -2.6281   -5.0269 H         1 <0>         0.1226
     49 H14         4.7648   -4.0634   -4.2192 H         1 <0>         0.1278
     50 H15         8.0185   -1.0921   -4.0634 H         1 <0>         0.0780
     51 H16        12.8139    2.4149   -5.9573 H         1 <0>         0.1241
     52 H17        14.1292    0.8466   -4.6740 H         1 <0>         0.1261
     53 H18        12.6536   -3.0567   -2.0793 H         1 <0>         0.2126
@<TRIPOS>BOND
     1    1    6 ar
     2    1    2 ar
     3    1   37 1
     4    2    3 ar
     5    2   38 1
     6    3    4 ar
     7    3   39 1
     8    4   10 1
     9    4    5 ar
    10    5    6 ar
    11    5    7 1
    12    6   40 1
    13    7    8 1
    14    7   41 1
    15    7   42 1
    16    8    9 1
    17    8   11 1
    18    9   10 2
    19    9   43 1
    20   10   44 1
    21   11   12 1
    22   11   45 1
    23   12   13 2
    24   12   14 2
    25   12   15 1
    26   15   20 ar
    27   15   16 ar
    28   16   17 ar
    29   16   46 1
    30   17   18 ar
    31   17   47 1
    32   18   19 ar
    33   18   21 1
    34   19   20 ar
    35   19   48 1
    36   20   49 1
    37   21   22 2
    38   22   23 1
    39   22   50 1
    40   23   35 2
    41   23   24 1
    42   24   29 ar
    43   24   25 ar
    44   25   26 ar
    45   25   33 1
    46   26   27 ar
    47   26   51 1
    48   27   28 ar
    49   27   52 1
    50   28   32 1
    51   28   29 ar
    52   29   30 1
    53   30   31 1
    54   31   32 2
    55   31   53 1
    56   33   34 1
    57   33   35 1
    58   35   36 1
@<TRIPOS>MOLECULE
CHEMBL343151
   39    42     0     0     0
SMALL
USER_CHARGES

@<TRIPOS>ATOM
      1 C1          3.8174    3.7963   -3.9711 C.ar      1 <0>        -0.1664
      2 C2          4.1019    4.1613   -2.6827 C.ar      1 <0>        -0.0522
      3 C3          5.3427    3.7904   -2.1486 C.ar      1 <0>        -0.0588
      4 C4          6.2505    3.0577   -2.9532 C.ar      1 <0>         0.1317
      5 C5          7.4976    2.6854   -2.4165 C.ar      1 <0>        -0.0679
      6 C6          7.8429    3.0154   -1.1471 C.ar      1 <0>        -0.0850
      7 C7          6.9817    3.7380   -0.3128 C.ar      1 <0>         0.0884
      8 C8          5.7296    4.1361   -0.7884 C.ar      1 <0>        -0.0335
      9 C9          5.0793    4.8627    0.3101 C.2       1 <0>        -0.1103
     10 C10         5.9792    4.8532    1.3679 C.2       1 <0>         0.2883
     11 N1          7.1006    4.1861    0.9902 N.pl3     1 <0>        -0.5541
     12 H1          7.8761    4.0438    1.5554 H         1 <0>         0.4249
     13 O1          5.7726    5.4181    2.5793 O.3       1 <0>        -0.4603
     14 N2          3.8526    5.4275    0.2944 N.2       1 <0>        -0.0624
     15 N3          2.9755    5.0892    1.1777 N.2       1 <0>        -0.1609
     16 C11         3.3754    4.5226    2.3566 C.ar      1 <0>         0.0645
     17 C12         4.1461    3.3573    2.3495 C.ar      1 <0>        -0.1641
     18 C13         4.5457    2.7915    3.5421 C.ar      1 <0>        -0.0286
     19 C14         4.1852    3.3753    4.7439 C.ar      1 <0>        -0.6796
     20 C15         3.4220    4.5295    4.7586 C.ar      1 <0>        -0.0100
     21 C16         3.0200    5.1097    3.5737 C.ar      1 <0>        -0.0912
     22 S1          4.6998    2.6450    6.2626 S.o2      1 <0>         2.7024
     23 O2          3.7763    3.0747    7.2534 O.2       1 <0>        -0.9527
     24 O3          4.9417    1.2713    5.9912 O.2       1 <0>        -0.9552
     25 N4          6.1624    3.3143    6.6568 N.pl3     1 <0>        -1.2494
     26 N5          5.9125    2.7326   -4.2040 N.ar      1 <0>        -0.4686
     27 C17         4.7514    3.0770   -4.7090 C.ar      1 <0>         0.1254
     28 H2          2.8680    4.0624   -4.4119 H         1 <0>         0.1425
     29 H3          3.3894    4.7203   -2.0942 H         1 <0>         0.1462
     30 H4          8.1918    2.1266   -3.0266 H         1 <0>         0.1481
     31 H5          8.8082    2.7122   -0.7696 H         1 <0>         0.1375
     32 H6          5.4578    4.7999    3.2530 H         1 <0>         0.3916
     33 H7          4.4279    2.9004    1.4123 H         1 <0>         0.1443
     34 H8          5.1412    1.8905    3.5381 H         1 <0>         0.1550
     35 H9          3.1443    4.9797    5.7003 H         1 <0>         0.1614
     36 H10         2.4285    6.0132    3.5866 H         1 <0>         0.1559
     37 H11         6.5635    3.9798    6.0762 H         1 <0>         0.4151
     38 H12         6.6180    3.0407    7.4683 H         1 <0>         0.4247
     39 H13         4.5150    2.7950   -5.7244 H         1 <0>         0.1630
@<TRIPOS>BOND
     1    1   27 ar
     2    1    2 ar
     3    1   28 1
     4    2    3 ar
     5    2   29 1
     6    3    8 ar
     7    3    4 ar
     8    4    5 ar
     9    4   26 ar
    10    5    6 ar
    11    5   30 1
    12    6    7 ar
    13    6   31 1
    14    7   11 1
    15    7    8 ar
    16    8    9 1
    17    9   10 2
    18    9   14 1
    19   10   11 1
    20   10   13 1
    21   11   12 1
    22   13   32 1
    23   14   15 2
    24   15   16 1
    25   16   21 ar
    26   16   17 ar
    27   17   18 ar
    28   17   33 1
    29   18   19 ar
    30   18   34 1
    31   19   20 ar
    32   19   22 1
    33   20   21 ar
    34   20   35 1
    35   21   36 1
    36   22   23 2
    37   22   24 2
    38   22   25 1
    39   25   37 1
    40   25   38 1
    41   26   27 ar
    42   27   39 1
@<TRIPOS>MOLECULE
CHEMBL343151
   39    42     0     0     0
SMALL
USER_CHARGES

@<TRIPOS>ATOM
      1 C1         -0.0168    1.3866    0.0097 C.ar      1 <0>        -0.1705
      2 C2          1.1612    2.0840    0.0022 C.ar      1 <0>        -0.0492
      3 C3          2.3595    1.3585   -0.0132 C.ar      1 <0>        -0.0587
      4 C4          2.3102   -0.0578   -0.0204 C.ar      1 <0>         0.1323
      5 C5          3.5144   -0.7867   -0.0363 C.ar      1 <0>        -0.0726
      6 C6          4.7161   -0.1580   -0.0449 C.ar      1 <0>        -0.0818
      7 C7          4.8180    1.2383   -0.0383 C.ar      1 <0>         0.0808
      8 C8          3.6579    2.0169   -0.0225 C.ar      1 <0>        -0.0290
      9 C9          4.0977    3.4184   -0.0193 C.2       1 <0>        -0.0365
     10 C10         5.4862    3.3892   -0.0333 C.2       1 <0>         0.3300
     11 N1          5.9027    2.0964   -0.0445 N.pl3     1 <0>        -0.5554
     12 H1          6.8307    1.8145   -0.0550 H         1 <0>         0.4250
     13 O1          6.2940    4.4741   -0.0361 O.3       1 <0>        -0.4403
     14 N2          3.3099    4.5153   -0.0061 N.2       1 <0>        -0.1438
     15 N3          3.8411    5.6909   -0.0049 N.2       1 <0>        -0.2658
     16 C11         3.0432    6.8018    0.0084 C.ar      1 <0>         0.1295
     17 C12         1.6527    6.6671    0.0266 C.ar      1 <0>        -0.1432
     18 C13         0.8544    7.7917    0.0399 C.ar      1 <0>        -0.0145
     19 C14         1.4276    9.0512    0.0354 C.ar      1 <0>        -0.6724
     20 C15         2.8041    9.1923    0.0174 C.ar      1 <0>        -0.0158
     21 C16         3.6150    8.0766    0.0098 C.ar      1 <0>        -0.0969
     22 S1          0.3998   10.4823    0.0519 S.o2      1 <0>         2.7018
     23 O2          1.1672   11.5400   -0.5065 O.2       1 <0>        -0.9616
     24 O3         -0.8556   10.0869   -0.4837 O.2       1 <0>        -0.9619
     25 N4          0.1347   10.8764    1.6383 N.pl3     1 <0>        -1.2498
     26 N5          1.1275   -0.6787   -0.0129 N.ar      1 <0>        -0.4698
     27 C17         0.0021   -0.0041    0.0020 C.ar      1 <0>         0.1261
     28 H2         -0.9585    1.9150    0.0260 H         1 <0>         0.1411
     29 H3          1.1666    3.1639    0.0076 H         1 <0>         0.1443
     30 H4          3.4808   -1.8662   -0.0415 H         1 <0>         0.1473
     31 H5          5.6190   -0.7505   -0.0568 H         1 <0>         0.1369
     32 H6          6.5377    4.7853    0.8464 H         1 <0>         0.4089
     33 H7          1.2040    5.6847    0.0298 H         1 <0>         0.1427
     34 H8         -0.2206    7.6892    0.0535 H         1 <0>         0.1462
     35 H9          3.2446   10.1784    0.0140 H         1 <0>         0.1509
     36 H10         4.6892    8.1881    0.0007 H         1 <0>         0.1449
     37 H11         0.5283   10.3395    2.3438 H         1 <0>         0.4169
     38 H12        -0.4143   11.6441    1.8621 H         1 <0>         0.4217
     39 H13        -0.9340   -0.5427    0.0081 H         1 <0>         0.1623
@<TRIPOS>BOND
     1    1   27 ar
     2    1    2 ar
     3    1   28 1
     4    2    3 ar
     5    2   29 1
     6    3    8 ar
     7    3    4 ar
     8    4    5 ar
     9    4   26 ar
    10    5    6 ar
    11    5   30 1
    12    6    7 ar
    13    6   31 1
    14    7   11 1
    15    7    8 ar
    16    8    9 1
    17    9   10 2
    18    9   14 1
    19   10   11 1
    20   10   13 1
    21   11   12 1
    22   13   32 1
    23   14   15 2
    24   15   16 1
    25   16   21 ar
    26   16   17 ar
    27   17   18 ar
    28   17   33 1
    29   18   19 ar
    30   18   34 1
    31   19   20 ar
    32   19   22 1
    33   20   21 ar
    34   20   35 1
    35   21   36 1
    36   22   23 2
    37   22   24 2
    38   22   25 1
    39   25   37 1
    40   25   38 1
    41   26   27 ar
    42   27   39 1
@<TRIPOS>MOLECULE
CHEMBL185470
   34    36     0     0     0
SMALL
USER_CHARGES

@<TRIPOS>ATOM
      1 C1         -0.0153    1.3805    0.0311 C.ar      1 <0>        -0.1339
      2 C2          0.1398    0.2185    0.7646 C.ar      1 <0>        -0.0987
      3 C3          1.3441   -0.4572    0.7441 C.ar      1 <0>        -0.1196
      4 C4          2.4000    0.0314   -0.0141 C.ar      1 <0>         0.1604
      5 C5          2.2410    1.1985   -0.7496 C.ar      1 <0>        -0.1451
      6 C6          1.0342    1.8696   -0.7250 C.ar      1 <0>        -0.0999
      7 N1          3.6216   -0.6507   -0.0365 N.am      1 <0>        -0.6793
      8 C7          3.6447   -1.9949    0.0577 C.2       1 <0>         0.6984
      9 O1          2.6030   -2.6219    0.0649 O.2       1 <0>        -0.5059
     10 N2          4.8226   -2.6443    0.1441 N.am      1 <0>        -0.6278
     11 C8          4.8464   -4.0306    0.2413 C.2       1 <0>         0.2791
     12 N3          3.8308   -4.8665    0.2581 N.2       1 <0>        -0.5144
     13 C9          4.0211   -6.1694    0.3563 C.2       1 <0>         0.0616
     14 C10         5.3036   -6.6003    0.4383 C.2       1 <0>        -0.1952
     15 S1          6.1820   -5.0480    0.3587 S.3       1 <0>         0.1180
     16 C11         5.8403   -8.0034    0.5580 C.3       1 <0>        -0.0205
     17 C12         7.0687   -8.1168    1.4761 C.3       1 <0>        -0.1349
     18 C13         7.6455   -9.1074    0.4510 C.3       1 <0>        -0.1425
     19 C14         6.7667   -8.4094   -0.6004 C.3       1 <0>        -0.1335
     20 H1         -0.9594    1.9047    0.0452 H         1 <0>         0.1245
     21 H2         -0.6817   -0.1607    1.3543 H         1 <0>         0.1267
     22 H3          1.4647   -1.3645    1.3175 H         1 <0>         0.1353
     23 H4          3.0604    1.5812   -1.3400 H         1 <0>         0.1258
     24 H5          0.9098    2.7772   -1.2971 H         1 <0>         0.1276
     25 H6          4.4518   -0.1560   -0.1200 H         1 <0>         0.4087
     26 H7          5.6537   -2.1441    0.1384 H         1 <0>         0.4231
     27 H8          3.1917   -6.8610    0.3710 H         1 <0>         0.1746
     28 H9          5.0633   -8.7369    0.7733 H         1 <0>         0.1165
     29 H10         7.6393   -7.1917    1.5583 H         1 <0>         0.0816
     30 H11         6.8502   -8.5679    2.4441 H         1 <0>         0.0753
     31 H12         8.7146   -8.9838    0.2781 H         1 <0>         0.0720
     32 H13         7.3629  -10.1434    0.6381 H         1 <0>         0.0852
     33 H14         6.3044   -9.0968   -1.3089 H         1 <0>         0.0747
     34 H15         7.2547   -7.5644   -1.0860 H         1 <0>         0.0823
@<TRIPOS>BOND
     1    1    6 ar
     2    1    2 ar
     3    1   20 1
     4    2    3 ar
     5    2   21 1
     6    3    4 ar
     7    3   22 1
     8    4    5 ar
     9    4    7 1
    10    5    6 ar
    11    5   23 1
    12    6   24 1
    13    7    8 am
    14    7   25 1
    15    8    9 2
    16    8   10 am
    17   10   11 1
    18   10   26 1
    19   11   15 1
    20   11   12 2
    21   12   13 1
    22   13   14 2
    23   13   27 1
    24   14   15 1
    25   14   16 1
    26   16   19 1
    27   16   17 1
    28   16   28 1
    29   17   18 1
    30   17   29 1
    31   17   30 1
    32   18   19 1
    33   18   31 1
    34   18   32 1
    35   19   33 1
    36   19   34 1
@<TRIPOS>MOLECULE
CHEMBL570002
   39    41     0     0     0
SMALL
USER_CHARGES

@<TRIPOS>ATOM
      1 C1          0.0236   -8.2359   -1.0376 C.3       1 <0>        -0.0966
      2 C2          0.0410   -6.7617   -0.7253 C.2       1 <0>         0.0963
      3 C3          0.0205   -5.7561   -1.6293 C.2       1 <0>        -0.2709
      4 C4          0.0479   -4.5420   -0.9239 C.2       1 <0>         0.3053
      5 N1          0.0836   -4.8178    0.3588 N.2       1 <0>        -0.3224
      6 N2          0.0741   -6.2107    0.5064 N.pl3     1 <0>        -0.4669
      7 H1          0.0907   -6.6948    1.3468 H         1 <0>         0.4407
      8 N3          0.0392   -3.2613   -1.4899 N.pl3     1 <0>        -0.6010
      9 C5          0.1351   -3.1105   -2.8641 C.ar      1 <0>         0.4347
     10 C6          0.2262   -1.8317   -3.4203 C.ar      1 <0>        -0.0330
     11 N4          0.3175   -1.6812   -4.7239 N.ar      1 <0>        -0.3277
     12 C7          0.3239   -2.7493   -5.5206 C.ar      1 <0>         0.0114
     13 C8          0.2329   -4.0368   -4.9647 C.ar      1 <0>         0.4569
     14 N5          0.1457   -4.1814   -3.6485 N.ar      1 <0>        -0.5397
     15 N6          0.2386   -5.1501   -5.7866 N.pl3     1 <0>        -0.6910
     16 C9          0.1436   -6.4910   -5.2043 C.3       1 <0>         0.2200
     17 H2          0.6722   -6.5116   -4.2513 H         1 <0>         0.1263
     18 C10        -1.3275   -6.8463   -4.9793 C.3       1 <0>        -0.1620
     19 C11         0.7640   -7.4921   -6.1445 C.ar      1 <0>         0.2961
     20 N7          0.4852   -7.4214   -7.4306 N.ar      1 <0>        -0.4863
     21 C12         1.0109   -8.2822   -8.2870 C.ar      1 <0>         0.1330
     22 C13         1.8657   -9.2682   -7.8134 C.ar      1 <0>         0.0011
     23 C14         2.1345   -9.3094   -6.4521 C.ar      1 <0>         0.1323
     24 N8          1.5745   -8.4106   -5.6587 N.ar      1 <0>        -0.4769
     25 F1          2.4219  -10.1656   -8.6563 F         1 <0>        -0.1134
     26 C15         0.4228   -2.5856   -6.9398 C.1       1 <0>         0.2731
     27 N9          0.5013   -2.4557   -8.0656 N.1       1 <0>        -0.3972
     28 H3         -1.0079   -8.5844   -1.0881 H         1 <0>         0.0822
     29 H4          0.5132   -8.4101   -1.9957 H         1 <0>         0.0904
     30 H5          0.5529   -8.7794   -0.2550 H         1 <0>         0.0723
     31 H6         -0.0108   -5.8669   -2.7031 H         1 <0>         0.1817
     32 H7         -0.0340   -2.4797   -0.9202 H         1 <0>         0.4325
     33 H8          0.2213   -0.9638   -2.7776 H         1 <0>         0.1806
     34 H9          0.3054   -5.0426   -6.7483 H         1 <0>         0.4221
     35 H10        -1.3982   -7.8440   -4.5460 H         1 <0>         0.0737
     36 H11        -1.7762   -6.1222   -4.2992 H         1 <0>         0.0808
     37 H12        -1.8561   -6.8257   -5.9323 H         1 <0>         0.0687
     38 H13         0.7780   -8.2189   -9.3397 H         1 <0>         0.1860
     39 H14         2.7943  -10.0622   -6.0468 H         1 <0>         0.1868
@<TRIPOS>BOND
     1    1    2 1
     2    1   28 1
     3    1   29 1
     4    1   30 1
     5    2    6 1
     6    2    3 2
     7    3    4 1
     8    3   31 1
     9    4    5 2
    10    4    8 1
    11    5    6 1
    12    6    7 1
    13    8    9 1
    14    8   32 1
    15    9   14 ar
    16    9   10 ar
    17   10   11 ar
    18   10   33 1
    19   11   12 ar
    20   12   13 ar
    21   12   26 1
    22   13   14 ar
    23   13   15 1
    24   15   16 1
    25   15   34 1
    26   16   17 1
    27   16   18 1
    28   16   19 1
    29   18   35 1
    30   18   36 1
    31   18   37 1
    32   19   24 ar
    33   19   20 ar
    34   20   21 ar
    35   21   22 ar
    36   21   38 1
    37   22   23 ar
    38   22   25 1
    39   23   24 ar
    40   23   39 1
    41   26   27 3
@<TRIPOS>MOLECULE
CHEMBL570002
   39    41     0     0     0
SMALL
USER_CHARGES

@<TRIPOS>ATOM
      1 C1          0.2022   -8.2088    0.9441 C.3       1 <0>        -0.0758
      2 C2          0.1420   -6.7322    0.6492 C.2       1 <0>         0.0891
      3 C3          0.1461   -5.7084    1.6002 C.2       1 <0>        -0.2752
      4 C4          0.0807   -4.5213    0.9361 C.2       1 <0>         0.3094
      5 N1          0.0371   -4.7995   -0.3926 N.pl3     1 <0>        -0.4946
      6 N2          0.0827   -6.1916   -0.5407 N.2       1 <0>        -0.2844
      7 H1         -0.0132   -4.1497   -1.1111 H         1 <0>         0.4361
      8 N3          0.0614   -3.2541    1.5137 N.pl3     1 <0>        -0.6171
      9 C5         -0.0313   -3.1212    2.8902 C.ar      1 <0>         0.4303
     10 C6         -0.1540   -1.8516    3.4611 C.ar      1 <0>        -0.0321
     11 N4         -0.2420   -1.7181    4.7668 N.ar      1 <0>        -0.3275
     12 C7         -0.2148   -2.7947    5.5515 C.ar      1 <0>         0.0166
     13 C8         -0.0919   -4.0731    4.9806 C.ar      1 <0>         0.4572
     14 N5         -0.0086   -4.2006    3.6625 N.ar      1 <0>        -0.5351
     15 N6         -0.0629   -5.1951    5.7900 N.pl3     1 <0>        -0.6890
     16 C9          0.0653   -6.5264    5.1921 C.3       1 <0>         0.2192
     17 H2         -0.4677   -6.5507    4.2416 H         1 <0>         0.1280
     18 C10         1.5442   -6.8391    4.9557 C.3       1 <0>        -0.1617
     19 C11        -0.5227   -7.5544    6.1242 C.ar      1 <0>         0.2956
     20 N7         -0.2391   -7.4905    7.4095 N.ar      1 <0>        -0.4871
     21 C12        -0.7367   -8.3748    8.2588 C.ar      1 <0>         0.1324
     22 C13        -1.5670   -9.3783    7.7785 C.ar      1 <0>         0.0014
     23 C14        -1.8418   -9.4116    6.4182 C.ar      1 <0>         0.1329
     24 N8         -1.3106   -8.4892    5.6321 N.ar      1 <0>        -0.4750
     25 F1         -2.0941  -10.2998    8.6140 F         1 <0>        -0.1134
     26 C15        -0.3100   -2.6495    6.9730 C.1       1 <0>         0.2712
     27 N9         -0.3856   -2.5343    8.1006 N.1       1 <0>        -0.3933
     28 H3         -0.8096   -8.5985    1.0559 H         1 <0>         0.0798
     29 H4          0.7010   -8.7233    0.1227 H         1 <0>         0.0730
     30 H5          0.7587   -8.3727    1.8669 H         1 <0>         0.0786
     31 H6          0.1925   -5.8359    2.6716 H         1 <0>         0.1825
     32 H7          0.1127   -2.4645    0.9525 H         1 <0>         0.4284
     33 H8         -0.1764   -0.9768    2.8281 H         1 <0>         0.1799
     34 H9         -0.1275   -5.1002    6.7532 H         1 <0>         0.4225
     35 H10         2.0772   -6.8148    5.9062 H         1 <0>         0.0685
     36 H11         1.6396   -7.8296    4.5109 H         1 <0>         0.0754
     37 H12         1.9695   -6.0956    4.2816 H         1 <0>         0.0803
     38 H13        -0.4999   -8.3168    9.3110 H         1 <0>         0.1859
     39 H14        -2.4831  -10.1775    6.0077 H         1 <0>         0.1872
@<TRIPOS>BOND
     1    1    2 1
     2    1   28 1
     3    1   29 1
     4    1   30 1
     5    2    3 1
     6    2    6 2
     7    3   31 1
     8    3    4 2
     9    4    8 1
    10    4    5 1
    11    5    7 1
    12    5    6 1
    13    8    9 1
    14    8   32 1
    15    9   14 ar
    16    9   10 ar
    17   10   11 ar
    18   10   33 1
    19   11   12 ar
    20   12   13 ar
    21   12   26 1
    22   13   14 ar
    23   13   15 1
    24   15   16 1
    25   15   34 1
    26   16   17 1
    27   16   18 1
    28   16   19 1
    29   18   35 1
    30   18   36 1
    31   18   37 1
    32   19   24 ar
    33   19   20 ar
    34   20   21 ar
    35   21   22 ar
    36   21   38 1
    37   22   23 ar
    38   22   25 1
    39   23   24 ar
    40   23   39 1
    41   26   27 3
@<TRIPOS>MOLECULE
CHEMBL104526
   50    56     0     0     0
SMALL
USER_CHARGES

@<TRIPOS>ATOM
      1 C1         -0.0178    1.4614    0.0101 C.3       1 <0>         0.0631
      2 N1          0.0021   -0.0041    0.0020 N.pl3     1 <0>        -0.4492
      3 C2         -0.0220   -0.7485   -1.1476 C.2       1 <0>         0.0436
      4 C3         -0.1526   -2.0481   -0.8397 C.2       1 <0>        -0.1864
      5 C4         -0.1904   -2.1333    0.6197 C.ar      1 <0>        -0.1124
      6 C5          0.0236   -0.8272    1.0954 C.ar      1 <0>         0.0987
      7 C6          0.2473   -0.6590    2.4743 C.ar      1 <0>         0.0565
      8 C7         -0.1980   -1.6764    3.3597 C.ar      1 <0>        -0.0259
      9 C8         -0.4567   -2.9633    2.8555 C.ar      1 <0>        -0.1483
     10 C9         -0.4245   -3.1893    1.5187 C.ar      1 <0>        -0.0438
     11 C10        -0.3739   -1.3865    4.7295 C.ar      1 <0>         0.1870
     12 C11         0.1415   -0.1751    5.2482 C.ar      1 <0>        -0.0620
     13 C12        -0.1758   -0.1637    6.6726 C.ar      1 <0>        -0.0881
     14 C13         0.0304    0.7206    7.7331 C.ar      1 <0>        -0.0517
     15 C14        -0.4307    0.3255    8.9828 C.ar      1 <0>        -0.1436
     16 C15        -1.0822   -0.8852    9.2018 C.ar      1 <0>        -0.0764
     17 C16        -1.3080   -1.7585    8.1683 C.ar      1 <0>        -0.1009
     18 C17        -0.8445   -1.3704    6.9130 C.ar      1 <0>         0.1138
     19 N2         -0.9714   -2.0851    5.7436 N.pl3     1 <0>        -0.4782
     20 C18        -1.6692   -3.3791    5.7434 C.3       1 <0>         0.1177
     21 C19        -2.6718   -3.3934    6.9036 C.3       1 <0>        -0.1022
     22 C20        -1.9994   -3.0877    8.2475 C.3       1 <0>        -0.0635
     23 C21        -3.3232   -4.7760    6.9786 C.3       1 <0>         0.0845
     24 O1         -4.3427   -4.7685    7.9799 O.3       1 <0>        -0.5684
     25 C22         0.8184    0.7134    4.3967 C.ar      1 <0>        -0.0653
     26 C23         0.9364    0.4356    3.0260 C.ar      1 <0>        -0.1747
     27 C24         1.9138    1.4125    2.5186 C.2       1 <0>         0.5818
     28 O2          2.5009    1.3639    1.4560 O.2       1 <0>        -0.4615
     29 N3          2.0875    2.3673    3.4513 N.am      1 <0>        -0.6862
     30 C25         1.4776    2.0214    4.5985 C.2       1 <0>         0.5791
     31 O3          1.4682    2.6789    5.6191 O.2       1 <0>        -0.4550
     32 H1          1.0048    1.8386    0.0023 H         1 <0>         0.0860
     33 H2         -0.5450    1.8224   -0.8730 H         1 <0>         0.0897
     34 H3         -0.5280    1.8129    0.9069 H         1 <0>         0.0772
     35 H4          0.0582   -0.3372   -2.1440 H         1 <0>         0.1739
     36 H5         -0.2143   -2.8719   -1.5374 H         1 <0>         0.1529
     37 H6         -0.6696   -3.7784    3.5288 H         1 <0>         0.1280
     38 H7         -0.5794   -4.1898    1.1416 H         1 <0>         0.1307
     39 H8          0.5183    1.6753    7.5878 H         1 <0>         0.1448
     40 H9         -0.2796    0.9918    9.8184 H         1 <0>         0.1259
     41 H10        -1.4161   -1.1436   10.1971 H         1 <0>         0.1301
     42 H11        -2.2020   -3.5077    4.7999 H         1 <0>         0.0996
     43 H12        -0.9483   -4.1856    5.8682 H         1 <0>         0.0883
     44 H13        -3.4450   -2.6494    6.7153 H         1 <0>         0.0914
     45 H14        -1.2668   -3.8612    8.4709 H         1 <0>         0.0802
     46 H15        -2.7541   -3.0587    9.0328 H         1 <0>         0.0954
     47 H16        -3.7643   -5.0226    6.0128 H         1 <0>         0.0531
     48 H17        -2.5685   -5.5198    7.2339 H         1 <0>         0.0536
     49 H18        -4.7993   -5.6147    8.0825 H         1 <0>         0.3860
     50 H19         2.5790    3.1917    3.3017 H         1 <0>         0.4313
@<TRIPOS>BOND
     1    1    2 1
     2    1   32 1
     3    1   33 1
     4    1   34 1
     5    2    6 1
     6    2    3 1
     7    3    4 2
     8    3   35 1
     9    4    5 1
    10    4   36 1
    11    5   10 ar
    12    5    6 ar
    13    6    7 ar
    14    7   26 ar
    15    7    8 ar
    16    8    9 ar
    17    8   11 ar
    18    9   10 ar
    19    9   37 1
    20   10   38 1
    21   11   19 1
    22   11   12 ar
    23   12   13 1
    24   12   25 ar
    25   13   18 ar
    26   13   14 ar
    27   14   15 ar
    28   14   39 1
    29   15   16 ar
    30   15   40 1
    31   16   17 ar
    32   16   41 1
    33   17   22 1
    34   17   18 ar
    35   18   19 1
    36   19   20 1
    37   20   21 1
    38   20   42 1
    39   20   43 1
    40   21   22 1
    41   21   23 1
    42   21   44 1
    43   22   45 1
    44   22   46 1
    45   23   24 1
    46   23   47 1
    47   23   48 1
    48   24   49 1
    49   25   30 1
    50   25   26 ar
    51   26   27 1
    52   27   28 2
    53   27   29 am
    54   29   30 am
    55   29   50 1
    56   30   31 2
@<TRIPOS>MOLECULE
CHEMBL104526
   50    56     0     0     0
SMALL
USER_CHARGES

@<TRIPOS>ATOM
      1 C1         -0.0178    1.4624    0.0101 C.3       1 <0>         0.0685
      2 N1          0.0021   -0.0041    0.0020 N.pl3     1 <0>        -0.4492
      3 C2          0.0255   -0.7431   -1.1512 C.2       1 <0>         0.0446
      4 C3          0.1800   -2.0405   -0.8510 C.2       1 <0>        -0.1882
      5 C4          0.2464   -2.1313    0.6069 C.ar      1 <0>        -0.1125
      6 C5          0.0237   -0.8305    1.0935 C.ar      1 <0>         0.0985
      7 C6         -0.1578   -0.6741    2.4805 C.ar      1 <0>         0.0592
      8 C7          0.3317   -1.6930    3.3434 C.ar      1 <0>        -0.0272
      9 C8          0.5961   -2.9735    2.8232 C.ar      1 <0>        -0.1475
     10 C9          0.5124   -3.1936    1.4890 C.ar      1 <0>        -0.0446
     11 C10         0.5538   -1.4172    4.7101 C.ar      1 <0>         0.1903
     12 C11         0.0430   -0.2146    5.2533 C.ar      1 <0>        -0.0639
     13 C12         0.4052   -0.2049    6.6678 C.ar      1 <0>        -0.0877
     14 C13         0.2151    0.6719    7.7368 C.ar      1 <0>        -0.0512
     15 C14         0.7245    0.2809    8.9674 C.ar      1 <0>        -0.1441
     16 C15         1.3981   -0.9215    9.1603 C.ar      1 <0>        -0.0767
     17 C16         1.6011   -1.7898    8.1192 C.ar      1 <0>        -0.0996
     18 C17         1.0957   -1.4044    6.8796 C.ar      1 <0>         0.1137
     19 N2          1.1925   -2.1144    5.7026 N.pl3     1 <0>        -0.4795
     20 C18         1.9018   -3.4033    5.6819 C.3       1 <0>         0.1186
     21 C19         2.9422   -3.4051    6.8098 C.3       1 <0>        -0.1029
     22 C20         2.3098   -3.1114    8.1752 C.3       1 <0>        -0.0636
     23 C21         3.6212   -4.7752    6.8602 C.3       1 <0>         0.0848
     24 O1          4.6714   -4.7509    7.8290 O.3       1 <0>        -0.5684
     25 C22        -0.6721    0.6696    4.4328 C.ar      1 <0>        -0.0642
     26 C23        -0.8359    0.4114    3.0635 C.ar      1 <0>        -0.1772
     27 C24        -1.8318    1.3937    2.6051 C.2       1 <0>         0.5826
     28 O2         -2.4423    1.3723    1.5535 O.2       1 <0>        -0.4619
     29 N3         -2.0014    2.3197    3.5663 N.am      1 <0>        -0.6840
     30 C25        -1.3420    1.9645    4.6821 C.2       1 <0>         0.5769
     31 O3         -1.2944    2.5952    5.7191 O.2       1 <0>        -0.4536
     32 H1          1.0048    1.8396    0.0023 H         1 <0>         0.0742
     33 H2         -0.5450    1.8234   -0.8730 H         1 <0>         0.0893
     34 H3         -0.5280    1.8139    0.9069 H         1 <0>         0.0797
     35 H4         -0.0722   -0.3383   -2.1469 H         1 <0>         0.1740
     36 H5          0.2360   -2.8643   -1.5475 H         1 <0>         0.1526
     37 H6          0.8633   -3.7840    3.4837 H         1 <0>         0.1282
     38 H7          0.6511   -4.1917    1.1004 H         1 <0>         0.1310
     39 H8         -0.3065    1.6093    7.6146 H         1 <0>         0.1454
     40 H9          0.5872    0.9385    9.8131 H         1 <0>         0.1259
     41 H10         1.7644   -1.1681   10.1457 H         1 <0>         0.1298
     42 H11         1.1913   -4.2152    5.8311 H         1 <0>         0.0893
     43 H12         2.4089   -3.5231    4.7245 H         1 <0>         0.0993
     44 H13         3.6964   -2.6467    6.5998 H         1 <0>         0.0912
     45 H14         3.0866   -3.0753    8.9362 H         1 <0>         0.0954
     46 H15         1.5948   -3.8971    8.4185 H         1 <0>         0.0803
     47 H16         2.8890   -5.5336    7.1371 H         1 <0>         0.0537
     48 H17         4.0361   -5.0113    5.8804 H         1 <0>         0.0531
     49 H18         5.1468   -5.5886    7.9148 H         1 <0>         0.3860
     50 H19        -2.5252    3.1306    3.4685 H         1 <0>         0.4318
@<TRIPOS>BOND
     1    1    2 1
     2    1   32 1
     3    1   33 1
     4    1   34 1
     5    2    6 1
     6    2    3 1
     7    3    4 2
     8    3   35 1
     9    4    5 1
    10    4   36 1
    11    5   10 ar
    12    5    6 ar
    13    6    7 ar
    14    7   26 ar
    15    7    8 ar
    16    8    9 ar
    17    8   11 ar
    18    9   10 ar
    19    9   37 1
    20   10   38 1
    21   11   19 1
    22   11   12 ar
    23   12   13 1
    24   12   25 ar
    25   13   18 ar
    26   13   14 ar
    27   14   15 ar
    28   14   39 1
    29   15   16 ar
    30   15   40 1
    31   16   17 ar
    32   16   41 1
    33   17   22 1
    34   17   18 ar
    35   18   19 1
    36   19   20 1
    37   20   21 1
    38   20   42 1
    39   20   43 1
    40   21   22 1
    41   21   23 1
    42   21   44 1
    43   22   45 1
    44   22   46 1
    45   23   24 1
    46   23   47 1
    47   23   48 1
    48   24   49 1
    49   25   30 1
    50   25   26 ar
    51   26   27 1
    52   27   28 2
    53   27   29 am
    54   29   30 am
    55   29   50 1
    56   30   31 2
@<TRIPOS>MOLECULE
CHEMBL143748
   59    64     0     0     0
SMALL
USER_CHARGES

@<TRIPOS>ATOM
      1 C1          0.1505    1.3716    0.6477 C.ar      1 <0>        -0.0997
      2 C2          1.1664    2.0909    0.0514 C.ar      1 <0>        -0.0611
      3 C3          2.2170    1.4248   -0.5795 C.ar      1 <0>        -0.1271
      4 C4          2.2417    0.0257   -0.5821 C.ar      1 <0>        -0.1138
      5 C5          1.2155   -0.6861    0.0097 C.ar      1 <0>         0.1868
      6 C6          0.1675   -0.0103    0.6258 C.ar      1 <0>        -0.0981
      7 N1          1.2308   -2.0855   -0.0109 N.am      1 <0>        -0.6730
      8 C7          0.0763   -2.7736    0.0892 C.2       1 <0>         0.7162
      9 O1         -0.9858   -2.1816    0.0943 O.2       1 <0>        -0.5347
     10 N2          0.0990   -4.1178    0.1837 N.am      1 <0>        -0.6570
     11 C8         -1.0960   -4.8300    0.2873 C.2       1 <0>         0.3208
     12 C9         -2.3495   -4.2999    0.2998 C.2       1 <0>        -0.2669
     13 C10        -3.2590   -5.3548    0.4165 C.2       1 <0>         0.0912
     14 N3         -2.5848   -6.4748    0.4722 N.2       1 <0>        -0.2581
     15 N4         -1.2196   -6.1731    0.3877 N.pl3     1 <0>        -0.4880
     16 H1         -0.4916   -6.8139    0.4005 H         1 <0>         0.4371
     17 C11        -4.7594   -5.2244    0.4696 C.3       1 <0>         0.1385
     18 N5         -5.3145   -5.4044   -0.8785 N.3       1 <0>        -0.6717
     19 C12        -6.7785   -5.2837   -0.8654 C.3       1 <0>         0.0917
     20 H2         -7.1900   -5.6797    0.0630 H         1 <0>         0.0962
     21 C13        -7.2099   -3.8167   -1.0750 C.3       1 <0>        -0.1131
     22 C14        -8.4813   -3.8907   -1.8933 C.ar      1 <0>        -0.0907
     23 C15        -9.4652   -2.9402   -2.1104 C.ar      1 <0>        -0.0939
     24 C16       -10.5536   -3.2357   -2.9069 C.ar      1 <0>        -0.1109
     25 C17       -10.6625   -4.4853   -3.4911 C.ar      1 <0>        -0.0336
     26 C18        -9.6811   -5.4346   -3.2757 C.ar      1 <0>        -0.0985
     27 C19        -8.5894   -5.1391   -2.4767 C.ar      1 <0>        -0.0823
     28 C20        -7.3985   -5.9940   -2.0874 C.3       1 <0>        -0.0706
     29 Cl1       -12.0293   -4.8602   -4.4936 Cl        1 <0>        -0.0681
     30 C21         3.5136   -0.3675   -1.2745 C.3       1 <0>         0.1309
     31 H3          4.2239   -0.8053   -0.5732 H         1 <0>         0.1062
     32 C22         3.2715   -1.2986   -2.4725 C.3       1 <0>        -0.1254
     33 C23         4.2692   -0.8089   -3.5489 C.3       1 <0>        -0.1380
     34 C24         4.9900    0.3991   -2.9013 C.3       1 <0>         0.1416
     35 N6          4.0458    0.8805   -1.8701 N.am      1 <0>        -0.6245
     36 C25         3.4106    1.9094   -1.3051 C.2       1 <0>         0.5938
     37 O2          3.7610    3.0711   -1.3765 O.2       1 <0>        -0.5159
     38 H4         -0.6596    1.8911    1.1379 H         1 <0>         0.1411
     39 H5          1.1479    3.1706    0.0736 H         1 <0>         0.1364
     40 H6         -0.6343   -0.5666    1.0885 H         1 <0>         0.1594
     41 H7          2.0724   -2.5601   -0.0973 H         1 <0>         0.4100
     42 H8          0.9462   -4.5901    0.1796 H         1 <0>         0.4104
     43 H9         -2.5973   -3.2509    0.2322 H         1 <0>         0.1747
     44 H10        -5.1669   -5.9856    1.1349 H         1 <0>         0.0909
     45 H11        -5.0252   -4.2354    0.8429 H         1 <0>         0.0578
     46 H12        -4.9037   -4.7515   -1.5289 H         1 <0>         0.3481
     47 H13        -7.4054   -3.3391   -0.1149 H         1 <0>         0.0798
     48 H14        -6.4404   -3.2704   -1.6204 H         1 <0>         0.0856
     49 H15        -9.3808   -1.9647   -1.6547 H         1 <0>         0.1300
     50 H16       -11.3193   -2.4925   -3.0735 H         1 <0>         0.1350
     51 H17        -9.7664   -6.4100   -3.7315 H         1 <0>         0.1320
     52 H18        -6.6799   -6.0351   -2.9059 H         1 <0>         0.0912
     53 H19        -7.7224   -6.9990   -1.8166 H         1 <0>         0.0832
     54 H20         3.4827   -2.3326   -2.1998 H         1 <0>         0.0811
     55 H21         2.2466   -1.2000   -2.8303 H         1 <0>         0.0795
     56 H22         4.9858   -1.5948   -3.7876 H         1 <0>         0.0884
     57 H23         3.7356   -0.4957   -4.4463 H         1 <0>         0.0789
     58 H24         5.9226    0.0822   -2.4345 H         1 <0>         0.0827
     59 H25         5.1774    1.1751   -3.6435 H         1 <0>         0.0878
@<TRIPOS>BOND
     1    1    6 ar
     2    1    2 ar
     3    1   38 1
     4    2    3 ar
     5    2   39 1
     6    3   36 1
     7    3    4 ar
     8    4    5 ar
     9    4   30 1
    10    5    6 ar
    11    5    7 1
    12    6   40 1
    13    7    8 am
    14    7   41 1
    15    8    9 2
    16    8   10 am
    17   10   11 1
    18   10   42 1
    19   11   15 1
    20   11   12 2
    21   12   13 1
    22   12   43 1
    23   13   14 2
    24   13   17 1
    25   14   15 1
    26   15   16 1
    27   17   18 1
    28   17   44 1
    29   17   45 1
    30   18   19 1
    31   18   46 1
    32   19   20 1
    33   19   28 1
    34   19   21 1
    35   21   22 1
    36   21   47 1
    37   21   48 1
    38   22   27 ar
    39   22   23 ar
    40   23   24 ar
    41   23   49 1
    42   24   25 ar
    43   24   50 1
    44   25   26 ar
    45   25   29 1
    46   26   27 ar
    47   26   51 1
    48   27   28 1
    49   28   52 1
    50   28   53 1
    51   30   31 1
    52   30   35 1
    53   30   32 1
    54   32   33 1
    55   32   54 1
    56   32   55 1
    57   33   34 1
    58   33   56 1
    59   33   57 1
    60   34   35 1
    61   34   58 1
    62   34   59 1
    63   35   36 am
    64   36   37 2
@<TRIPOS>MOLECULE
CHEMBL143748
   60    65     0     0     0
SMALL
USER_CHARGES

@<TRIPOS>ATOM
      1 C1          0.1505    1.3716    0.6477 C.ar      1 <0>        -0.1000
      2 C2          1.1664    2.0909    0.0514 C.ar      1 <0>        -0.0561
      3 C3          2.2170    1.4248   -0.5795 C.ar      1 <0>        -0.1228
      4 C4          2.2417    0.0257   -0.5821 C.ar      1 <0>        -0.1085
      5 C5          1.2155   -0.6861    0.0097 C.ar      1 <0>         0.1768
      6 C6          0.1675   -0.0103    0.6258 C.ar      1 <0>        -0.0985
      7 N1          1.2308   -2.0855   -0.0109 N.am      1 <0>        -0.6660
      8 C7          0.0763   -2.7736    0.0892 C.2       1 <0>         0.7201
      9 O1         -0.9858   -2.1816    0.0943 O.2       1 <0>        -0.5385
     10 N2          0.0990   -4.1178    0.1837 N.am      1 <0>        -0.6593
     11 C8         -1.0960   -4.8300    0.2873 C.2       1 <0>         0.3508
     12 C9         -2.3493   -4.2995    0.3053 C.2       1 <0>        -0.2618
     13 C10        -3.2588   -5.3545    0.4197 C.2       1 <0>         0.0162
     14 N3         -2.5849   -6.4750    0.4689 N.2       1 <0>        -0.2466
     15 N4         -1.2199   -6.1734    0.3823 N.pl3     1 <0>        -0.4624
     16 H1         -0.4920   -6.8146    0.3904 H         1 <0>         0.4498
     17 C11        -4.7590   -5.2239    0.4772 C.3       1 <0>         0.0903
     18 N5         -5.3177   -5.3979   -0.8702 N.4       1 <0>        -0.5013
     19 C12        -6.7801   -5.2705   -0.8142 C.3       1 <0>         0.0231
     20 H2         -7.1995   -5.9586   -0.0802 H         1 <0>         0.1601
     21 C13        -7.1926   -3.8165   -0.5015 C.3       1 <0>        -0.0943
     22 C14        -8.4621   -3.5859   -1.2930 C.ar      1 <0>        -0.1021
     23 C15        -9.4334   -2.6067   -1.1658 C.ar      1 <0>        -0.0803
     24 C16       -10.5229   -2.5937   -2.0140 C.ar      1 <0>        -0.0964
     25 C17       -10.6454   -3.5617   -2.9951 C.ar      1 <0>        -0.0247
     26 C18        -9.6766   -4.5392   -3.1235 C.ar      1 <0>        -0.0882
     27 C19        -8.5839   -4.5531   -2.2730 C.ar      1 <0>        -0.0932
     28 C20        -7.4050   -5.5051   -2.2058 C.3       1 <0>        -0.0925
     29 Cl1       -12.0135   -3.5482   -4.0636 Cl        1 <0>        -0.0456
     30 C21         3.5136   -0.3675   -1.2745 C.3       1 <0>         0.1286
     31 H3          4.2239   -0.8053   -0.5732 H         1 <0>         0.1077
     32 C22         3.2715   -1.2986   -2.4725 C.3       1 <0>        -0.1240
     33 C23         4.2692   -0.8089   -3.5489 C.3       1 <0>        -0.1383
     34 C24         4.9900    0.3991   -2.9013 C.3       1 <0>         0.1404
     35 N6          4.0458    0.8805   -1.8701 N.am      1 <0>        -0.6234
     36 C25         3.4106    1.9094   -1.3051 C.2       1 <0>         0.5911
     37 O2          3.7610    3.0711   -1.3765 O.2       1 <0>        -0.5094
     38 H4         -0.6596    1.8911    1.1379 H         1 <0>         0.1424
     39 H5          1.1479    3.1706    0.0736 H         1 <0>         0.1394
     40 H6         -0.6343   -0.5666    1.0885 H         1 <0>         0.1569
     41 H7          2.0724   -2.5601   -0.0973 H         1 <0>         0.4131
     42 H8          0.9462   -4.5901    0.1796 H         1 <0>         0.4175
     43 H9         -2.5968   -3.2501    0.2428 H         1 <0>         0.1880
     44 H10        -5.1651   -5.9877    1.1404 H         1 <0>         0.1489
     45 H11        -5.0235   -4.2364    0.8555 H         1 <0>         0.1535
     46 H12        -4.9418   -4.6908   -1.4841 H         1 <0>         0.4301
     47 H13        -7.3852   -3.6990    0.5649 H         1 <0>         0.1114
     48 H14        -6.4146   -3.1248   -0.8246 H         1 <0>         0.1050
     49 H15        -9.3385   -1.8508   -0.4002 H         1 <0>         0.1393
     50 H16       -11.2788   -1.8292   -1.9115 H         1 <0>         0.1452
     51 H17        -9.7725   -5.2949   -3.8891 H         1 <0>         0.1391
     52 H18        -6.6842   -5.2690   -2.9887 H         1 <0>         0.1032
     53 H19        -7.7422   -6.5374   -2.2999 H         1 <0>         0.1112
     54 H20         3.4827   -2.3326   -2.1998 H         1 <0>         0.0801
     55 H21         2.2466   -1.2000   -2.8303 H         1 <0>         0.0775
     56 H22         4.9858   -1.5948   -3.7876 H         1 <0>         0.0897
     57 H23         3.7356   -0.4957   -4.4463 H         1 <0>         0.0795
     58 H24         5.9226    0.0822   -2.4345 H         1 <0>         0.0845
     59 H25         5.1774    1.1751   -3.6435 H         1 <0>         0.0900
     60 H26        -5.0729   -6.3120   -1.2203 H         1 <0>         0.4337
@<TRIPOS>BOND
     1    1    6 ar
     2    1    2 ar
     3    1   38 1
     4    2    3 ar
     5    2   39 1
     6    3   36 1
     7    3    4 ar
     8    4    5 ar
     9    4   30 1
    10    5    6 ar
    11    5    7 1
    12    6   40 1
    13    7    8 am
    14    7   41 1
    15    8    9 2
    16    8   10 am
    17   10   42 1
    18   10   11 1
    19   11   12 2
    20   11   15 1
    21   12   13 1
    22   12   43 1
    23   13   14 2
    24   13   17 1
    25   14   15 1
    26   15   16 1
    27   17   18 1
    28   17   44 1
    29   17   45 1
    30   18   19 1
    31   18   46 1
    32   18   60 1
    33   19   20 1
    34   19   28 1
    35   19   21 1
    36   21   22 1
    37   21   47 1
    38   21   48 1
    39   22   27 ar
    40   22   23 ar
    41   23   24 ar
    42   23   49 1
    43   24   25 ar
    44   24   50 1
    45   25   26 ar
    46   25   29 1
    47   26   27 ar
    48   26   51 1
    49   27   28 1
    50   28   52 1
    51   28   53 1
    52   30   31 1
    53   30   35 1
    54   30   32 1
    55   32   33 1
    56   32   54 1
    57   32   55 1
    58   33   34 1
    59   33   56 1
    60   33   57 1
    61   34   35 1
    62   34   58 1
    63   34   59 1
    64   35   36 am
    65   36   37 2
@<TRIPOS>MOLECULE
CHEMBL143748
   60    65     0     0     0
SMALL
USER_CHARGES

@<TRIPOS>ATOM
      1 C1          0.1508    1.3716    0.6482 C.ar      1 <0>        -0.1009
      2 C2          1.1664    2.0909    0.0514 C.ar      1 <0>        -0.0576
      3 C3          2.2165    1.4248   -0.5803 C.ar      1 <0>        -0.1231
      4 C4          2.2412    0.0257   -0.5829 C.ar      1 <0>        -0.1090
      5 C5          1.2155   -0.6861    0.0097 C.ar      1 <0>         0.1794
      6 C6          0.1678   -0.0103    0.6262 C.ar      1 <0>        -0.0990
      7 N1          1.2308   -2.0855   -0.0110 N.am      1 <0>        -0.6674
      8 C7          0.0763   -2.7736    0.0896 C.2       1 <0>         0.7219
      9 O1         -0.9858   -2.1816    0.0951 O.2       1 <0>        -0.5510
     10 N2          0.0990   -4.1178    0.1841 N.am      1 <0>        -0.6443
     11 C8         -1.1018   -4.8335    0.2887 C.2       1 <0>         0.3255
     12 C9         -2.3926   -4.2813    0.3016 C.2       1 <0>        -0.2010
     13 C10        -3.2776   -5.2976    0.4150 C.2       1 <0>         0.0070
     14 N3         -2.5786   -6.4507    0.4721 N.pl3     1 <0>        -0.4536
     15 N4         -1.2162   -6.1370    0.3859 N.2       1 <0>        -0.2724
     16 H1         -2.9542   -7.3413    0.5546 H         1 <0>         0.4484
     17 C11        -4.7779   -5.1658    0.4690 C.3       1 <0>         0.0713
     18 N5         -5.3340   -5.3454   -0.8787 N.4       1 <0>        -0.5042
     19 C12        -6.7965   -5.2170   -0.8261 C.3       1 <0>         0.0218
     20 H2         -7.2176   -5.9016   -0.0899 H         1 <0>         0.1602
     21 C13        -7.2087   -3.7613   -0.5205 C.3       1 <0>        -0.0942
     22 C14        -8.4766   -3.5335   -1.3156 C.ar      1 <0>        -0.1030
     23 C15        -9.4476   -2.5532   -1.1945 C.ar      1 <0>        -0.0798
     24 C16       -10.5354   -2.5433   -2.0448 C.ar      1 <0>        -0.0956
     25 C17       -10.6565   -3.5156   -3.0219 C.ar      1 <0>        -0.0241
     26 C18        -9.6881   -4.4941   -3.1442 C.ar      1 <0>        -0.0879
     27 C19        -8.5970   -4.5049   -2.2915 C.ar      1 <0>        -0.0941
     28 C20        -7.4188   -5.4573   -2.2179 C.3       1 <0>        -0.0923
     29 Cl1       -12.0226   -3.5059   -4.0931 Cl        1 <0>        -0.0442
     30 C21         3.5126   -0.3675   -1.2763 C.3       1 <0>         0.1286
     31 H3          4.2234   -0.8053   -0.5755 H         1 <0>         0.1081
     32 C22         3.2695   -1.2986   -2.4741 C.3       1 <0>        -0.1242
     33 C23         4.2664   -0.8089   -3.5513 C.3       1 <0>        -0.1382
     34 C24         4.9877    0.3991   -2.9043 C.3       1 <0>         0.1405
     35 N6          4.0443    0.8805   -1.8724 N.am      1 <0>        -0.6234
     36 C25         3.4096    1.9094   -1.3069 C.2       1 <0>         0.5912
     37 O2          3.7596    3.0712   -1.3790 O.2       1 <0>        -0.5107
     38 H4         -0.6591    1.8911    1.1386 H         1 <0>         0.1414
     39 H5          1.1477    3.1706    0.0733 H         1 <0>         0.1386
     40 H6         -0.6340   -0.5666    1.0890 H         1 <0>         0.1568
     41 H7          2.0723   -2.5601   -0.0977 H         1 <0>         0.4138
     42 H8          0.9463   -4.5901    0.1797 H         1 <0>         0.4219
     43 H9         -2.6356   -3.2312    0.2334 H         1 <0>         0.1891
     44 H10        -5.1857   -5.9265    1.1347 H         1 <0>         0.1486
     45 H11        -5.0425   -4.1766    0.8424 H         1 <0>         0.1604
     46 H12        -4.9565   -4.6413   -1.4949 H         1 <0>         0.4330
     47 H13        -7.4033   -3.6391    0.5449 H         1 <0>         0.1115
     48 H14        -6.4297   -3.0715   -0.8451 H         1 <0>         0.1053
     49 H15        -9.3537   -1.7941   -0.4320 H         1 <0>         0.1396
     50 H16       -11.2910   -1.7779   -1.9472 H         1 <0>         0.1459
     51 H17        -9.7829   -5.2531   -3.9067 H         1 <0>         0.1394
     52 H18        -6.6964   -5.2250   -3.0004 H         1 <0>         0.1037
     53 H19        -7.7564   -6.4898   -2.3081 H         1 <0>         0.1113
     54 H20         3.4810   -2.3326   -2.2016 H         1 <0>         0.0813
     55 H21         2.2444   -1.2001   -2.8311 H         1 <0>         0.0774
     56 H22         4.9828   -1.5948   -3.7905 H         1 <0>         0.0897
     57 H23         3.7321   -0.4957   -4.4482 H         1 <0>         0.0791
     58 H24         5.9207    0.0823   -2.4382 H         1 <0>         0.0845
     59 H25         5.1745    1.1750   -3.6466 H         1 <0>         0.0895
     60 H26        -5.0891   -6.2612   -1.2244 H         1 <0>         0.4301
@<TRIPOS>BOND
     1    1    6 ar
     2    1    2 ar
     3    1   38 1
     4    2    3 ar
     5    2   39 1
     6    3   36 1
     7    3    4 ar
     8    4    5 ar
     9    4   30 1
    10    5    6 ar
    11    5    7 1
    12    6   40 1
    13    7    8 am
    14    7   41 1
    15    8    9 2
    16    8   10 am
    17   10   42 1
    18   10   11 1
    19   11   15 2
    20   11   12 1
    21   12   43 1
    22   12   13 2
    23   13   17 1
    24   13   14 1
    25   14   15 1
    26   14   16 1
    27   17   18 1
    28   17   44 1
    29   17   45 1
    30   18   19 1
    31   18   46 1
    32   18   60 1
    33   19   20 1
    34   19   28 1
    35   19   21 1
    36   21   22 1
    37   21   47 1
    38   21   48 1
    39   22   27 ar
    40   22   23 ar
    41   23   24 ar
    42   23   49 1
    43   24   25 ar
    44   24   50 1
    45   25   26 ar
    46   25   29 1
    47   26   27 ar
    48   26   51 1
    49   27   28 1
    50   28   52 1
    51   28   53 1
    52   30   31 1
    53   30   35 1
    54   30   32 1
    55   32   33 1
    56   32   54 1
    57   32   55 1
    58   33   34 1
    59   33   56 1
    60   33   57 1
    61   34   35 1
    62   34   58 1
    63   34   59 1
    64   35   36 am
    65   36   37 2
@<TRIPOS>MOLECULE
CHEMBL143748
   59    64     0     0     0
SMALL
USER_CHARGES

@<TRIPOS>ATOM
      1 C1          0.1508    1.3716    0.6482 C.ar      1 <0>        -0.1005
      2 C2          1.1664    2.0909    0.0514 C.ar      1 <0>        -0.0627
      3 C3          2.2165    1.4248   -0.5803 C.ar      1 <0>        -0.1274
      4 C4          2.2412    0.0257   -0.5829 C.ar      1 <0>        -0.1145
      5 C5          1.2155   -0.6861    0.0097 C.ar      1 <0>         0.1894
      6 C6          0.1678   -0.0103    0.6262 C.ar      1 <0>        -0.0986
      7 N1          1.2308   -2.0855   -0.0110 N.am      1 <0>        -0.6743
      8 C7          0.0763   -2.7736    0.0896 C.2       1 <0>         0.7177
      9 O1         -0.9858   -2.1816    0.0951 O.2       1 <0>        -0.5440
     10 N2          0.0990   -4.1178    0.1841 N.am      1 <0>        -0.6415
     11 C8         -1.1018   -4.8335    0.2887 C.2       1 <0>         0.3160
     12 C9         -2.3926   -4.2813    0.3016 C.2       1 <0>        -0.2566
     13 C10        -3.2776   -5.2976    0.4150 C.2       1 <0>         0.1018
     14 N3         -2.5786   -6.4507    0.4721 N.pl3     1 <0>        -0.4515
     15 N4         -1.2162   -6.1370    0.3859 N.2       1 <0>        -0.3140
     16 H1         -2.9542   -7.3413    0.5546 H         1 <0>         0.4439
     17 C11        -4.7779   -5.1658    0.4690 C.3       1 <0>         0.1179
     18 N5         -5.3340   -5.3454   -0.8787 N.3       1 <0>        -0.6762
     19 C12        -6.7979   -5.2233   -0.8647 C.3       1 <0>         0.0902
     20 H2         -7.2092   -5.6189    0.0640 H         1 <0>         0.0963
     21 C13        -7.2281   -3.7559   -1.0742 C.3       1 <0>        -0.1128
     22 C14        -8.5000   -3.8288   -1.8917 C.ar      1 <0>        -0.0913
     23 C15        -9.4831   -2.8774   -2.1082 C.ar      1 <0>        -0.0933
     24 C16       -10.5724   -3.1720   -2.9041 C.ar      1 <0>        -0.1099
     25 C17       -10.6827   -4.4215   -3.4881 C.ar      1 <0>        -0.0331
     26 C18        -9.7021   -5.3717   -3.2732 C.ar      1 <0>        -0.0981
     27 C19        -8.6097   -5.0772   -2.4749 C.ar      1 <0>        -0.0835
     28 C20        -7.4193   -5.9332   -2.0863 C.3       1 <0>        -0.0703
     29 Cl1       -12.0505   -4.7951   -4.4897 Cl        1 <0>        -0.0667
     30 C21         3.5126   -0.3675   -1.2763 C.3       1 <0>         0.1308
     31 H3          4.2234   -0.8053   -0.5755 H         1 <0>         0.1065
     32 C22         3.2695   -1.2986   -2.4741 C.3       1 <0>        -0.1256
     33 C23         4.2664   -0.8089   -3.5513 C.3       1 <0>        -0.1379
     34 C24         4.9877    0.3991   -2.9043 C.3       1 <0>         0.1417
     35 N6          4.0443    0.8805   -1.8724 N.am      1 <0>        -0.6246
     36 C25         3.4096    1.9094   -1.3069 C.2       1 <0>         0.5939
     37 O2          3.7596    3.0712   -1.3790 O.2       1 <0>        -0.5172
     38 H4         -0.6591    1.8911    1.1386 H         1 <0>         0.1401
     39 H5          1.1477    3.1706    0.0733 H         1 <0>         0.1356
     40 H6         -0.6340   -0.5666    1.0890 H         1 <0>         0.1594
     41 H7          2.0723   -2.5601   -0.0977 H         1 <0>         0.4105
     42 H8          0.9463   -4.5901    0.1797 H         1 <0>         0.4145
     43 H9         -2.6356   -3.2312    0.2334 H         1 <0>         0.1735
     44 H10        -5.1857   -5.9265    1.1347 H         1 <0>         0.0902
     45 H11        -5.0425   -4.1766    0.8424 H         1 <0>         0.0665
     46 H12        -4.9230   -4.6930   -1.5294 H         1 <0>         0.3521
     47 H13        -7.4225   -3.2781   -0.1140 H         1 <0>         0.0802
     48 H14        -6.4583   -3.2104   -1.6200 H         1 <0>         0.0863
     49 H15        -9.3976   -1.9019   -1.6527 H         1 <0>         0.1305
     50 H16       -11.3375   -2.4281   -3.0702 H         1 <0>         0.1357
     51 H17        -9.7886   -6.3470   -3.7289 H         1 <0>         0.1322
     52 H18        -6.7012   -5.9750   -2.9052 H         1 <0>         0.0914
     53 H19        -7.7440   -6.9378   -1.8152 H         1 <0>         0.0830
     54 H20         3.4810   -2.3326   -2.2016 H         1 <0>         0.0823
     55 H21         2.2444   -1.2001   -2.8311 H         1 <0>         0.0795
     56 H22         4.9828   -1.5948   -3.7905 H         1 <0>         0.0884
     57 H23         3.7321   -0.4957   -4.4482 H         1 <0>         0.0785
     58 H24         5.9207    0.0823   -2.4382 H         1 <0>         0.0826
     59 H25         5.1745    1.1750   -3.6466 H         1 <0>         0.0873
@<TRIPOS>BOND
     1    1    6 ar
     2    1    2 ar
     3    1   38 1
     4    2    3 ar
     5    2   39 1
     6    3   36 1
     7    3    4 ar
     8    4    5 ar
     9    4   30 1
    10    5    6 ar
    11    5    7 1
    12    6   40 1
    13    7    8 am
    14    7   41 1
    15    8    9 2
    16    8   10 am
    17   10   42 1
    18   10   11 1
    19   11   15 2
    20   11   12 1
    21   12   43 1
    22   12   13 2
    23   13   17 1
    24   13   14 1
    25   14   15 1
    26   14   16 1
    27   17   18 1
    28   17   44 1
    29   17   45 1
    30   18   19 1
    31   18   46 1
    32   19   20 1
    33   19   28 1
    34   19   21 1
    35   21   22 1
    36   21   47 1
    37   21   48 1
    38   22   27 ar
    39   22   23 ar
    40   23   24 ar
    41   23   49 1
    42   24   25 ar
    43   24   50 1
    44   25   26 ar
    45   25   29 1
    46   26   27 ar
    47   26   51 1
    48   27   28 1
    49   28   52 1
    50   28   53 1
    51   30   31 1
    52   30   35 1
    53   30   32 1
    54   32   33 1
    55   32   54 1
    56   32   55 1
    57   33   34 1
    58   33   56 1
    59   33   57 1
    60   34   35 1
    61   34   58 1
    62   34   59 1
    63   35   36 am
    64   36   37 2
@<TRIPOS>MOLECULE
CHEMBL339246
   35    36     0     0     0
SMALL
USER_CHARGES

@<TRIPOS>ATOM
      1 C1         -0.0184    1.5028    0.0103 C.3       1 <0>        -0.1658
      2 C2          0.0021   -0.0041    0.0020 C.2       1 <0>         0.5055
      3 O1          0.0203   -0.6161    1.0491 O.2       1 <0>        -0.4725
      4 N1          0.0001   -0.6716   -1.1688 N.am      1 <0>        -0.6201
      5 C3          0.0189   -2.0636   -1.1765 C.2       1 <0>         0.3385
      6 N2          0.0342   -2.9055   -0.1599 N.2       1 <0>        -0.4902
      7 C4          0.0512   -4.2115   -0.3506 C.2       1 <0>         0.0876
      8 C5          0.0532   -4.7063   -1.6201 C.2       1 <0>        -0.2377
      9 S1          0.0211   -3.1888   -2.5656 S.3       1 <0>         0.0183
     10 S2          0.0744   -6.3782   -2.1760 S.3       1 <0>         0.0860
     11 C6          0.0654   -6.2394   -3.9847 C.3       1 <0>        -0.1426
     12 C7          0.0822   -7.6174   -4.5943 C.2       1 <0>         0.4856
     13 O2          0.0986   -8.5931   -3.8818 O.2       1 <0>        -0.4830
     14 O3          0.0790   -7.7610   -5.9289 O.3       1 <0>        -0.3384
     15 C8          0.0957   -9.0962   -6.4378 C.3       1 <0>         0.1089
     16 C9          0.0893   -9.0597   -7.9444 C.ar      1 <0>        -0.1024
     17 C10        -1.1107   -9.0539   -8.6305 C.ar      1 <0>        -0.0941
     18 C11        -1.1166   -9.0204  -10.0125 C.ar      1 <0>        -0.1225
     19 C12         0.0776   -8.9922  -10.7082 C.ar      1 <0>        -0.1064
     20 C13         1.2776   -8.9970  -10.0221 C.ar      1 <0>        -0.1225
     21 C14         1.2834   -9.0262   -8.6400 C.ar      1 <0>        -0.0941
     22 H1          1.0042    1.8801    0.0026 H         1 <0>         0.1034
     23 H2         -0.5455    1.8639   -0.8728 H         1 <0>         0.0869
     24 H3         -0.5286    1.8543    0.9071 H         1 <0>         0.1044
     25 H4         -0.0145   -0.1822   -2.0061 H         1 <0>         0.4285
     26 H5          0.0639   -4.8839    0.4945 H         1 <0>         0.1765
     27 H6         -0.8333   -5.7117   -4.3041 H         1 <0>         0.1335
     28 H7          0.9465   -5.6869   -4.3111 H         1 <0>         0.1335
     29 H8          0.9942   -9.6062   -6.0906 H         1 <0>         0.0823
     30 H9         -0.7855   -9.6311   -6.0836 H         1 <0>         0.0823
     31 H10        -2.0437   -9.0760   -8.0869 H         1 <0>         0.1251
     32 H11        -2.0541   -9.0166  -10.5486 H         1 <0>         0.1271
     33 H12         0.0730   -8.9667  -11.7879 H         1 <0>         0.1260
     34 H13         2.2106   -8.9753  -10.5657 H         1 <0>         0.1271
     35 H14         2.2209   -9.0262   -8.1038 H         1 <0>         0.1251
@<TRIPOS>BOND
     1    1    2 1
     2    1   22 1
     3    1   23 1
     4    1   24 1
     5    2    3 2
     6    2    4 am
     7    4    5 1
     8    4   25 1
     9    5    9 1
    10    5    6 2
    11    6    7 1
    12    7    8 2
    13    7   26 1
    14    8    9 1
    15    8   10 1
    16   10   11 1
    17   11   12 1
    18   11   27 1
    19   11   28 1
    20   12   13 2
    21   12   14 1
    22   14   15 1
    23   15   16 1
    24   15   29 1
    25   15   30 1
    26   16   21 ar
    27   16   17 ar
    28   17   18 ar
    29   17   31 1
    30   18   19 ar
    31   18   32 1
    32   19   20 ar
    33   19   33 1
    34   20   21 ar
    35   20   34 1
    36   21   35 1
@<TRIPOS>MOLECULE
CHEMBL193210
   44    47     0     0     0
SMALL
USER_CHARGES

@<TRIPOS>ATOM
      1 C1         -0.0187    1.5258    0.0104 C.3       1 <0>        -0.1456
      2 C2          0.0021   -0.0041    0.0020 C.3       1 <0>        -0.0614
      3 C3          0.7074   -0.4901   -1.2379 C.ar      1 <0>        -0.0886
      4 C4          0.2206   -0.1501   -2.4867 C.ar      1 <0>        -0.0585
      5 C5          0.8648   -0.5940   -3.6249 C.ar      1 <0>        -0.1424
      6 C6          2.0027   -1.3820   -3.5142 C.ar      1 <0>         0.1632
      7 C7          2.4894   -1.7212   -2.2588 C.ar      1 <0>        -0.1425
      8 C8          1.8435   -1.2703   -1.1244 C.ar      1 <0>        -0.0804
      9 N1          2.6583   -1.8342   -4.6670 N.am      1 <0>        -0.4759
     10 C9          2.2841   -1.5659   -5.9765 C.2       1 <0>        -0.0203
     11 C10         3.1528   -2.1690   -6.7810 C.2       1 <0>         0.0050
     12 N2          4.0842   -2.8240   -5.9891 N.am      1 <0>        -0.6394
     13 C11         3.7660   -2.6010   -4.6988 C.2       1 <0>         0.6532
     14 O1          4.3722   -3.0217   -3.7300 O.2       1 <0>        -0.5546
     15 C12        -1.4117   -0.5257    0.0127 C.2       1 <0>         0.5266
     16 O2         -1.8076   -1.2235   -0.8970 O.2       1 <0>        -0.4983
     17 N3         -2.2363   -0.2169    1.0331 N.am      1 <0>        -0.6360
     18 C13        -3.5512   -0.7020    1.0431 C.2       1 <0>         0.3037
     19 C14        -4.1360   -1.5198    0.0630 C.2       1 <0>        -0.2590
     20 C15        -5.4118   -1.7678    0.4367 C.2       1 <0>         0.1305
     21 N4         -5.6308   -1.1336    1.6078 N.pl3     1 <0>        -0.4675
     22 H1         -6.4603   -1.1359    2.1107 H         1 <0>         0.4390
     23 N5         -4.4491   -0.4759    1.9728 N.2       1 <0>        -0.3187
     24 C16        -6.4116   -2.6036   -0.3202 C.3       1 <0>        -0.0984
     25 C17        -7.8813   -2.1843   -0.2484 C.3       1 <0>        -0.1702
     26 C18        -7.4042   -3.4315    0.4985 C.3       1 <0>        -0.1701
     27 H2          1.0039    1.9031    0.0027 H         1 <0>         0.0770
     28 H3         -0.5459    1.8868   -0.8726 H         1 <0>         0.0664
     29 H4         -0.5289    1.8773    0.9072 H         1 <0>         0.0659
     30 H5          0.5293   -0.3651    0.8851 H         1 <0>         0.1128
     31 H6         -0.6645    0.4628   -2.5721 H         1 <0>         0.1276
     32 H7          0.4837   -0.3287   -4.6000 H         1 <0>         0.1294
     33 H8          3.3741   -2.3342   -2.1696 H         1 <0>         0.1556
     34 H9          2.2237   -1.5307   -0.1476 H         1 <0>         0.1304
     35 H10         1.4367   -0.9725   -6.2866 H         1 <0>         0.1859
     36 H11         3.1364   -2.1523   -7.8608 H         1 <0>         0.1904
     37 H12         4.8358   -3.3476   -6.3083 H         1 <0>         0.4365
     38 H13        -1.9197    0.3412    1.7606 H         1 <0>         0.4161
     39 H14        -3.6527   -1.8858   -0.8309 H         1 <0>         0.1730
     40 H15        -6.0545   -3.0291   -1.2580 H         1 <0>         0.1341
     41 H16        -8.1250   -1.3039    0.3463 H         1 <0>         0.0947
     42 H17        -8.4913   -2.3338   -1.1392 H         1 <0>         0.1079
     43 H18        -7.7004   -4.4014    0.0991 H         1 <0>         0.1079
     44 H19        -7.3341   -3.3716    1.5846 H         1 <0>         0.0949
@<TRIPOS>BOND
     1    1    2 1
     2    1   27 1
     3    1   28 1
     4    1   29 1
     5    2    3 1
     6    2   15 1
     7    2   30 1
     8    3    8 ar
     9    3    4 ar
    10    4    5 ar
    11    4   31 1
    12    5    6 ar
    13    5   32 1
    14    6    7 ar
    15    6    9 1
    16    7    8 ar
    17    7   33 1
    18    8   34 1
    19    9   13 am
    20    9   10 1
    21   10   35 1
    22   10   11 2
    23   11   36 1
    24   11   12 1
    25   12   13 am
    26   12   37 1
    27   13   14 2
    28   15   16 2
    29   15   17 am
    30   17   18 1
    31   17   38 1
    32   18   23 2
    33   18   19 1
    34   19   20 2
    35   19   39 1
    36   20   21 1
    37   20   24 1
    38   21   22 1
    39   21   23 1
    40   24   26 1
    41   24   25 1
    42   24   40 1
    43   25   26 1
    44   25   41 1
    45   25   42 1
    46   26   43 1
    47   26   44 1
@<TRIPOS>MOLECULE
CHEMBL193210
   44    47     0     0     0
SMALL
USER_CHARGES

@<TRIPOS>ATOM
      1 C1         -0.0187    1.5258    0.0104 C.3       1 <0>        -0.1456
      2 C2          0.0021   -0.0041    0.0020 C.3       1 <0>        -0.0594
      3 C3          0.7309   -0.5033    1.2229 C.ar      1 <0>        -0.0917
      4 C4          2.0505   -0.1469    1.4325 C.ar      1 <0>        -0.0585
      5 C5          2.7212   -0.6028    2.5505 C.ar      1 <0>        -0.1421
      6 C6          2.0690   -1.4195    3.4647 C.ar      1 <0>         0.1654
      7 C7          0.7438   -1.7752    3.2516 C.ar      1 <0>        -0.1425
      8 C8          0.0771   -1.3122    2.1342 C.ar      1 <0>        -0.0796
      9 N1          2.7468   -1.8840    4.5995 N.am      1 <0>        -0.4762
     10 C9          4.0637   -1.6018    4.9356 C.2       1 <0>        -0.0210
     11 C10         4.3357   -2.2237    6.0780 C.2       1 <0>         0.0062
     12 N2          3.1947   -2.9046    6.4754 N.am      1 <0>        -0.6392
     13 C11         2.2328   -2.6782    5.5592 C.2       1 <0>         0.6533
     14 O1          1.0973   -3.1174    5.5913 O.2       1 <0>        -0.5545
     15 C12         0.7074   -0.4901   -1.2379 C.2       1 <0>         0.5243
     16 O2          1.7040   -1.1745   -1.1398 O.2       1 <0>        -0.4879
     17 N3          0.2309   -0.1642   -2.4557 N.am      1 <0>        -0.6515
     18 C13         0.8838   -0.6140   -3.6033 C.2       1 <0>         0.3069
     19 C14         2.0052   -1.3844   -3.6407 C.2       1 <0>        -0.2696
     20 C15         2.3264   -1.6076   -4.9824 C.2       1 <0>         0.1217
     21 N4          1.4376   -0.9986   -5.7250 N.2       1 <0>        -0.2793
     22 H1         -0.2536    0.1528   -5.1630 H         1 <0>         0.4365
     23 N5          0.5141   -0.3688   -4.8810 N.pl3     1 <0>        -0.4911
     24 C16         3.4965   -2.4118   -5.4876 C.3       1 <0>        -0.0851
     25 C17         4.6226   -2.7185   -4.4984 C.3       1 <0>        -0.1631
     26 C18         4.8429   -1.6964   -5.6154 C.3       1 <0>        -0.1632
     27 H2          1.0039    1.9031    0.0027 H         1 <0>         0.0673
     28 H3         -0.5459    1.8868   -0.8726 H         1 <0>         0.0637
     29 H4         -0.5289    1.8773    0.9072 H         1 <0>         0.0784
     30 H5         -1.0205   -0.3814    0.0098 H         1 <0>         0.1128
     31 H6          2.5572    0.4884    0.7211 H         1 <0>         0.1273
     32 H7          3.7520   -0.3246    2.7133 H         1 <0>         0.1301
     33 H8          0.2340   -2.4106    3.9607 H         1 <0>         0.1561
     34 H9         -0.9547   -1.5855    1.9698 H         1 <0>         0.1302
     35 H10         4.7464   -0.9862    4.3688 H         1 <0>         0.1861
     36 H11         5.2788   -2.2028    6.6039 H         1 <0>         0.1907
     37 H12         3.1036   -3.4458    7.2752 H         1 <0>         0.4368
     38 H13        -0.5660    0.3831   -2.5342 H         1 <0>         0.4123
     39 H14         2.5501   -1.7566   -2.7858 H         1 <0>         0.1740
     40 H15         3.2582   -3.1724   -6.2311 H         1 <0>         0.1214
     41 H16         4.5172   -2.3387   -3.4822 H         1 <0>         0.1015
     42 H17         5.1254   -3.6812   -4.5909 H         1 <0>         0.1019
     43 H18         5.4905   -1.9866   -6.4426 H         1 <0>         0.1011
     44 H19         4.8823   -0.6441   -5.3340 H         1 <0>         0.0949
@<TRIPOS>BOND
     1    1    2 1
     2    1   27 1
     3    1   28 1
     4    1   29 1
     5    2    3 1
     6    2   15 1
     7    2   30 1
     8    3    8 ar
     9    3    4 ar
    10    4    5 ar
    11    4   31 1
    12    5    6 ar
    13    5   32 1
    14    6    7 ar
    15    6    9 1
    16    7    8 ar
    17    7   33 1
    18    8   34 1
    19    9   13 am
    20    9   10 1
    21   10   35 1
    22   10   11 2
    23   11   36 1
    24   11   12 1
    25   12   13 am
    26   12   37 1
    27   13   14 2
    28   15   16 2
    29   15   17 am
    30   17   38 1
    31   17   18 1
    32   18   19 2
    33   18   23 1
    34   19   20 1
    35   19   39 1
    36   20   21 2
    37   20   24 1
    38   21   23 1
    39   22   23 1
    40   24   26 1
    41   24   25 1
    42   24   40 1
    43   25   26 1
    44   25   41 1
    45   25   42 1
    46   26   43 1
    47   26   44 1
@<TRIPOS>MOLECULE
CHEMBL193210
   44    47     0     0     0
SMALL
USER_CHARGES

@<TRIPOS>ATOM
      1 C1         -0.0187    1.5258    0.0104 C.3       1 <0>        -0.1455
      2 C2          0.0021   -0.0041    0.0020 C.3       1 <0>        -0.0614
      3 C3         -1.4117   -0.5257    0.0127 C.ar      1 <0>        -0.0890
      4 C4         -2.2746   -0.2015   -1.0181 C.ar      1 <0>        -0.0580
      5 C5         -3.5709   -0.6780   -1.0111 C.ar      1 <0>        -0.1426
      6 C6         -4.0073   -1.4837    0.0321 C.ar      1 <0>         0.1634
      7 C7         -3.1383   -1.8079    1.0655 C.ar      1 <0>        -0.1428
      8 C8         -1.8418   -1.3322    1.0504 C.ar      1 <0>        -0.0801
      9 N1         -5.3219   -1.9683    0.0423 N.am      1 <0>        -0.4759
     10 C9         -6.2877   -1.7272   -0.9251 C.2       1 <0>        -0.0203
     11 C10        -7.3991   -2.3563   -0.5582 C.2       1 <0>         0.0050
     12 N2         -7.1475   -3.0010    0.6438 N.am      1 <0>        -0.6395
     13 C11        -5.8686   -2.7550    0.9900 C.2       1 <0>         0.6532
     14 O1         -5.3058   -3.1692    1.9874 O.2       1 <0>        -0.5546
     15 C12         0.7074   -0.4901   -1.2379 C.2       1 <0>         0.5266
     16 O2          0.1199   -1.1911   -2.0345 O.2       1 <0>        -0.4984
     17 N3          1.9912   -0.1458   -1.4616 N.am      1 <0>        -0.6360
     18 C13         2.6472   -0.5978   -2.6147 C.2       1 <0>         0.3036
     19 C14         2.0889   -1.4059   -3.6180 C.2       1 <0>        -0.2590
     20 C15         3.0398   -1.6200   -4.5555 C.2       1 <0>         0.1304
     21 N4          4.1588   -0.9742   -4.1650 N.pl3     1 <0>        -0.4674
     22 H1          5.0014   -0.9531   -4.6451 H         1 <0>         0.4390
     23 N5          3.8888   -0.3351   -2.9482 N.2       1 <0>        -0.3187
     24 C16         2.8788   -2.4352   -5.8127 C.3       1 <0>        -0.0984
     25 C17         4.1002   -3.2076   -6.3151 C.3       1 <0>        -0.1704
     26 C18         3.6229   -1.9608   -7.0625 C.3       1 <0>        -0.1699
     27 H2          1.0039    1.9031    0.0027 H         1 <0>         0.0659
     28 H3         -0.5459    1.8868   -0.8726 H         1 <0>         0.0664
     29 H4         -0.5289    1.8773    0.9072 H         1 <0>         0.0770
     30 H5          0.5293   -0.3651    0.8851 H         1 <0>         0.1128
     31 H6         -1.9346    0.4253   -1.8292 H         1 <0>         0.1277
     32 H7         -4.2446   -0.4238   -1.8161 H         1 <0>         0.1294
     33 H8         -3.4750   -2.4342    1.8784 H         1 <0>         0.1556
     34 H9         -1.1643   -1.5871    1.8519 H         1 <0>         0.1304
     35 H10        -6.1588   -1.1331   -1.8178 H         1 <0>         0.1859
     36 H11        -8.3333   -2.3640   -1.1000 H         1 <0>         0.1903
     37 H12        -7.7803   -3.5386    1.1454 H         1 <0>         0.4365
     38 H13         2.4610    0.4148   -0.8245 H         1 <0>         0.4162
     39 H14         1.0791   -1.7887   -3.6376 H         1 <0>         0.1730
     40 H15         1.9000   -2.8939   -5.9534 H         1 <0>         0.1341
     41 H16         5.0203   -3.1260   -5.7363 H         1 <0>         0.0947
     42 H17         3.9253   -4.1747   -6.7864 H         1 <0>         0.1080
     43 H18         3.1339   -2.1077   -8.0255 H         1 <0>         0.1079
     44 H19         4.2289   -1.0590   -6.9754 H         1 <0>         0.0949
@<TRIPOS>BOND
     1    1    2 1
     2    1   27 1
     3    1   28 1
     4    1   29 1
     5    2    3 1
     6    2   15 1
     7    2   30 1
     8    3    8 ar
     9    3    4 ar
    10    4    5 ar
    11    4   31 1
    12    5    6 ar
    13    5   32 1
    14    6    7 ar
    15    6    9 1
    16    7    8 ar
    17    7   33 1
    18    8   34 1
    19    9   13 am
    20    9   10 1
    21   10   35 1
    22   10   11 2
    23   11   36 1
    24   11   12 1
    25   12   13 am
    26   12   37 1
    27   13   14 2
    28   15   16 2
    29   15   17 am
    30   17   18 1
    31   17   38 1
    32   18   23 2
    33   18   19 1
    34   19   20 2
    35   19   39 1
    36   20   21 1
    37   20   24 1
    38   21   22 1
    39   21   23 1
    40   24   26 1
    41   24   25 1
    42   24   40 1
    43   25   26 1
    44   25   41 1
    45   25   42 1
    46   26   43 1
    47   26   44 1
@<TRIPOS>MOLECULE
CHEMBL193210
   44    47     0     0     0
SMALL
USER_CHARGES

@<TRIPOS>ATOM
      1 C1         -0.0187    1.5258    0.0104 C.3       1 <0>        -0.1456
      2 C2          0.0021   -0.0041    0.0020 C.3       1 <0>        -0.0593
      3 C3          0.7074   -0.4901   -1.2379 C.ar      1 <0>        -0.0921
      4 C4          2.0263   -0.1407   -1.4631 C.ar      1 <0>        -0.0579
      5 C5          2.6755   -0.5845   -2.5985 C.ar      1 <0>        -0.1422
      6 C6          2.0026   -1.3827   -3.5140 C.ar      1 <0>         0.1655
      7 C7          0.6785   -1.7322   -3.2848 C.ar      1 <0>        -0.1428
      8 C8          0.0362   -1.2892   -2.1451 C.ar      1 <0>        -0.0794
      9 N1          2.6583   -1.8342   -4.6670 N.am      1 <0>        -0.4763
     10 C9          3.9750   -1.5655   -5.0147 C.2       1 <0>        -0.0209
     11 C10         4.2224   -2.1678   -6.1730 C.2       1 <0>         0.0061
     12 N2          3.0658   -2.8229   -6.5690 N.am      1 <0>        -0.6393
     13 C11         2.1230   -2.6102   -5.6299 C.2       1 <0>         0.6534
     14 O1          0.9844   -3.0418   -5.6495 O.2       1 <0>        -0.5545
     15 C12         0.7309   -0.5033    1.2229 C.2       1 <0>         0.5242
     16 O2          1.7254   -1.1865    1.0985 O.2       1 <0>        -0.4879
     17 N3          0.2778   -0.1906    2.4531 N.am      1 <0>        -0.6514
     18 C13         0.9524   -0.6526    3.5830 C.2       1 <0>         0.3069
     19 C14         2.0743   -1.4232    3.5908 C.2       1 <0>        -0.2696
     20 C15         2.4219   -1.6594    4.9237 C.2       1 <0>         0.1217
     21 N4          1.5481   -1.0577    5.6895 N.2       1 <0>        -0.2793
     22 H1         -0.1431    0.1145    5.1724 H         1 <0>         0.4365
     23 N5          0.6139   -0.4114    4.8702 N.pl3     1 <0>        -0.4911
     24 C16         3.6012   -2.4691    5.3978 C.3       1 <0>        -0.0849
     25 C17         4.2736   -3.3978    4.3847 C.3       1 <0>        -0.1632
     26 C18         3.4187   -3.9840    5.5101 C.3       1 <0>        -0.1635
     27 H2          1.0039    1.9031    0.0027 H         1 <0>         0.0674
     28 H3         -0.5459    1.8868   -0.8726 H         1 <0>         0.0783
     29 H4         -0.5289    1.8773    0.9072 H         1 <0>         0.0637
     30 H5         -1.0205   -0.3814    0.0098 H         1 <0>         0.1127
     31 H6          2.5491    0.4802   -0.7507 H         1 <0>         0.1276
     32 H7          3.7053   -0.3107   -2.7742 H         1 <0>         0.1302
     33 H8          0.1524   -2.3527   -3.9952 H         1 <0>         0.1561
     34 H9         -0.9925   -1.5638   -1.9644 H         1 <0>         0.1302
     35 H10         4.6744   -0.9717   -4.4449 H         1 <0>         0.1862
     36 H11         5.1586   -2.1502   -6.7112 H         1 <0>         0.1907
     37 H12         2.9559   -3.3461   -7.3784 H         1 <0>         0.4367
     38 H13        -0.5174    0.3558    2.5526 H         1 <0>         0.4123
     39 H14         2.6017   -1.7876    2.7217 H         1 <0>         0.1740
     40 H15         4.2390   -1.9829    6.1360 H         1 <0>         0.1215
     41 H16         3.8630   -3.4232    3.3753 H         1 <0>         0.1015
     42 H17         5.3541   -3.5227    4.4562 H         1 <0>         0.1020
     43 H18         3.9367   -4.4945    6.3219 H         1 <0>         0.1012
     44 H19         2.4457   -4.3950    5.2411 H         1 <0>         0.0950
@<TRIPOS>BOND
     1    1    2 1
     2    1   27 1
     3    1   28 1
     4    1   29 1
     5    2    3 1
     6    2   15 1
     7    2   30 1
     8    3    8 ar
     9    3    4 ar
    10    4    5 ar
    11    4   31 1
    12    5    6 ar
    13    5   32 1
    14    6    7 ar
    15    6    9 1
    16    7    8 ar
    17    7   33 1
    18    8   34 1
    19    9   13 am
    20    9   10 1
    21   10   35 1
    22   10   11 2
    23   11   36 1
    24   11   12 1
    25   12   13 am
    26   12   37 1
    27   13   14 2
    28   15   16 2
    29   15   17 am
    30   17   38 1
    31   17   18 1
    32   18   19 2
    33   18   23 1
    34   19   20 1
    35   19   39 1
    36   20   21 2
    37   20   24 1
    38   21   23 1
    39   22   23 1
    40   24   26 1
    41   24   25 1
    42   24   40 1
    43   25   26 1
    44   25   41 1
    45   25   42 1
    46   26   43 1
    47   26   44 1
@<TRIPOS>MOLECULE
CHEMBL317703
   38    40     0     0     0
SMALL
USER_CHARGES

@<TRIPOS>ATOM
      1 C1         -0.0725    1.3798   -0.6681 C.ar      1 <0>        -0.1097
      2 C2          1.0969    2.0795   -0.8844 C.ar      1 <0>        -0.0459
      3 C3          2.2884    1.4010   -1.0688 C.ar      1 <0>        -0.0434
      4 C4          2.3156    0.0182   -1.0380 C.ar      1 <0>        -0.0470
      5 C5          1.1529   -0.6930   -0.8231 C.ar      1 <0>        -0.0906
      6 C6         -0.0516   -0.0146   -0.6356 C.ar      1 <0>         0.0206
      7 C7         -1.3020   -0.7712   -0.4036 C.2       1 <0>         0.1360
      8 C8         -1.4248   -2.1298   -0.3420 C.2       1 <0>        -0.2546
      9 C9         -2.7734   -2.4276   -0.1074 C.2       1 <0>         0.3215
     10 N1         -3.4403   -1.2993   -0.0300 N.2       1 <0>        -0.3006
     11 N2         -2.5415   -0.2396   -0.2063 N.pl3     1 <0>        -0.4610
     12 H1         -2.7624    0.7048   -0.1928 H         1 <0>         0.4450
     13 N3         -3.3180   -3.7110    0.0217 N.pl3     1 <0>        -0.6450
     14 C10        -4.7005   -3.8748    0.1372 C.ar      1 <0>         0.2351
     15 C11        -5.5619   -2.9571   -0.4511 C.ar      1 <0>        -0.1670
     16 C12        -6.9280   -3.1220   -0.3348 C.ar      1 <0>         0.0093
     17 C13        -7.4390   -4.1991    0.3662 C.ar      1 <0>        -0.7080
     18 C14        -6.5844   -5.1142    0.9534 C.ar      1 <0>         0.0147
     19 C15        -5.2173   -4.9588    0.8359 C.ar      1 <0>        -0.1832
     20 S1         -9.1827   -4.4056    0.5119 S.o2      1 <0>         2.7040
     21 O1         -9.4030   -5.1888    1.6769 O.2       1 <0>        -0.9650
     22 O2         -9.7600   -3.1187    0.3388 O.2       1 <0>        -0.9630
     23 N4         -9.6765   -5.3228   -0.7754 N.pl3     1 <0>        -1.2491
     24 N5          3.5393    2.1578   -1.3003 N.pl3     1 <0>         0.0300
     25 O3          3.5184    3.3663   -1.3281 O.2       1 <0>        -0.1530
     26 O4          4.5819    1.5675   -1.4618 O.3       1 <0>        -0.1512
     27 H2         -1.0012    1.9108   -0.5199 H         1 <0>         0.1453
     28 H3          1.0820    3.1591   -0.9102 H         1 <0>         0.1606
     29 H4          3.2488   -0.5058   -1.1830 H         1 <0>         0.1620
     30 H5          1.1753   -1.7725   -0.8000 H         1 <0>         0.1561
     31 H6         -0.6250   -2.8468   -0.4544 H         1 <0>         0.1598
     32 H7         -2.7353   -4.4865    0.0310 H         1 <0>         0.4270
     33 H8         -5.1636   -2.1156   -0.9984 H         1 <0>         0.1453
     34 H9         -7.5982   -2.4089   -0.7916 H         1 <0>         0.1441
     35 H10        -6.9868   -5.9540    1.5004 H         1 <0>         0.1458
     36 H11        -4.5505   -5.6766    1.2904 H         1 <0>         0.1369
     37 H12       -10.4474   -5.9051   -0.6887 H         1 <0>         0.4213
     38 H13        -9.1947   -5.2778   -1.6161 H         1 <0>         0.4168
@<TRIPOS>BOND
     1    1    6 ar
     2    1    2 ar
     3    1   27 1
     4    2    3 ar
     5    2   28 1
     6    3    4 ar
     7    3   24 1
     8    4    5 ar
     9    4   29 1
    10    5    6 ar
    11    5   30 1
    12    6    7 1
    13    7   11 1
    14    7    8 2
    15    8    9 1
    16    8   31 1
    17    9   10 2
    18    9   13 1
    19   10   11 1
    20   11   12 1
    21   13   14 1
    22   13   32 1
    23   14   19 ar
    24   14   15 ar
    25   15   16 ar
    26   15   33 1
    27   16   17 ar
    28   16   34 1
    29   17   18 ar
    30   17   20 1
    31   18   19 ar
    32   18   35 1
    33   19   36 1
    34   20   21 2
    35   20   22 2
    36   20   23 1
    37   23   37 1
    38   23   38 1
    39   24   25 2
    40   24   26 1
@<TRIPOS>MOLECULE
CHEMBL317703
   38    40     0     0     0
SMALL
USER_CHARGES

@<TRIPOS>ATOM
      1 C1         -0.0413    1.3980   -0.2434 C.ar      1 <0>        -0.0919
      2 C2          1.1299    2.1076   -0.4152 C.ar      1 <0>        -0.0530
      3 C3          2.3121    1.4415   -0.6835 C.ar      1 <0>        -0.0446
      4 C4          2.3277    0.0618   -0.7807 C.ar      1 <0>        -0.0532
      5 C5          1.1622   -0.6577   -0.6106 C.ar      1 <0>        -0.0940
      6 C6         -0.0313    0.0082   -0.3402 C.ar      1 <0>         0.0391
      7 C7         -1.2877   -0.7603   -0.1559 C.2       1 <0>         0.1261
      8 C8         -1.4174   -2.1598   -0.2270 C.2       1 <0>        -0.2929
      9 C9         -2.7223   -2.4679   -0.0013 C.2       1 <0>         0.3484
     10 N1         -3.3919   -1.3033    0.2050 N.pl3     1 <0>        -0.4848
     11 N2         -2.4723   -0.2514    0.1080 N.2       1 <0>        -0.2636
     12 H1         -4.3402   -1.2162    0.3897 H         1 <0>         0.4434
     13 N3         -3.2736   -3.7466    0.0152 N.pl3     1 <0>        -0.6564
     14 C10        -4.6560   -3.9098    0.1344 C.ar      1 <0>         0.2246
     15 C11        -5.5185   -2.9891   -0.4475 C.ar      1 <0>        -0.2056
     16 C12        -6.8844   -3.1535   -0.3276 C.ar      1 <0>         0.0202
     17 C13        -7.3939   -4.2330    0.3706 C.ar      1 <0>        -0.7049
     18 C14        -6.5383   -5.1514    0.9511 C.ar      1 <0>         0.0234
     19 C15        -5.1714   -4.9963    0.8303 C.ar      1 <0>        -0.1740
     20 S1         -9.1374   -4.4385    0.5215 S.o2      1 <0>         2.7043
     21 O1         -9.3544   -5.2265    1.6840 O.2       1 <0>        -0.9609
     22 O2         -9.7140   -3.1504    0.3558 O.2       1 <0>        -0.9592
     23 N4         -9.6364   -5.3499   -0.7679 N.pl3     1 <0>        -1.2479
     24 N5          3.5650    2.2079   -0.8678 N.pl3     1 <0>         0.0316
     25 O3          3.5538    3.4140   -0.7837 O.2       1 <0>        -0.1560
     26 O4          4.5995    1.6279   -1.1024 O.3       1 <0>        -0.1558
     27 H2         -0.9631    1.9188   -0.0299 H         1 <0>         0.1547
     28 H3          1.1233    3.1850   -0.3404 H         1 <0>         0.1583
     29 H4          3.2535   -0.4533   -0.9903 H         1 <0>         0.1589
     30 H5          1.1754   -1.7349   -0.6870 H         1 <0>         0.1529
     31 H6         -0.6225   -2.8634   -0.4258 H         1 <0>         0.1587
     32 H7         -2.6978   -4.5239   -0.0562 H         1 <0>         0.4337
     33 H8         -5.1213   -2.1456   -0.9926 H         1 <0>         0.1360
     34 H9         -7.5555   -2.4380   -0.7794 H         1 <0>         0.1506
     35 H10        -6.9395   -5.9933    1.4956 H         1 <0>         0.1511
     36 H11        -4.5037   -5.7164    1.2797 H         1 <0>         0.1426
     37 H12       -10.4076   -5.9318   -0.6810 H         1 <0>         0.4230
     38 H13        -9.1576   -5.3018   -1.6101 H         1 <0>         0.4172
@<TRIPOS>BOND
     1    1    6 ar
     2    1    2 ar
     3    1   27 1
     4    2    3 ar
     5    2   28 1
     6    3    4 ar
     7    3   24 1
     8    4    5 ar
     9    4   29 1
    10    5    6 ar
    11    5   30 1
    12    6    7 1
    13    7    8 1
    14    7   11 2
    15    8   31 1
    16    8    9 2
    17    9   13 1
    18    9   10 1
    19   10   12 1
    20   10   11 1
    21   13   14 1
    22   13   32 1
    23   14   19 ar
    24   14   15 ar
    25   15   16 ar
    26   15   33 1
    27   16   17 ar
    28   16   34 1
    29   17   18 ar
    30   17   20 1
    31   18   19 ar
    32   18   35 1
    33   19   36 1
    34   20   21 2
    35   20   22 2
    36   20   23 1
    37   23   37 1
    38   23   38 1
    39   24   25 2
    40   24   26 1
@<TRIPOS>MOLECULE
CHEMBL300936
   64    66     0     0     0
SMALL
USER_CHARGES

@<TRIPOS>ATOM
      1 C1         -0.0187    1.5258    0.0104 C.3       1 <0>        -0.1424
      2 C2          0.0021   -0.0041    0.0020 C.3       1 <0>         0.0155
      3 C3          0.7421   -0.5109    1.2415 C.3       1 <0>        -0.1425
      4 C4         -1.4333   -0.5336    0.0129 C.3       1 <0>        -0.1470
      5 C5          0.7074   -0.4901   -1.2379 C.2       1 <0>        -0.0077
      6 C6          1.9790   -0.2319   -1.5855 C.2       1 <0>        -0.0386
      7 N1          2.2153   -0.8490   -2.7568 N.2       1 <0>        -0.4474
      8 C7          1.1320   -1.4698   -3.1277 C.2       1 <0>         0.1782
      9 O1          0.1830   -1.2702   -2.2034 O.3       1 <0>        -0.1870
     10 C8          0.9740   -2.2836   -4.3862 C.3       1 <0>        -0.0268
     11 S1          1.4238   -4.0087   -4.0512 S.3       1 <0>         0.0457
     12 C9          1.1895   -4.8185   -5.5985 C.2       1 <0>        -0.2163
     13 C10         1.3712   -6.1270   -5.9320 C.2       1 <0>         0.0767
     14 N2          1.1322   -6.5241   -7.1679 N.2       1 <0>        -0.4856
     15 C11         0.7189   -5.6778   -8.0929 C.2       1 <0>         0.3243
     16 S2          0.6397   -4.1523   -7.1643 S.3       1 <0>         0.0364
     17 N3          0.4203   -5.9117   -9.4323 N.am      1 <0>        -0.6170
     18 C12         0.5425   -7.1529   -9.9432 C.2       1 <0>         0.5128
     19 O2          0.9127   -8.0661   -9.2360 O.2       1 <0>        -0.4646
     20 C13         0.2192   -7.4061  -11.3932 C.3       1 <0>        -0.1075
     21 C14         0.4362   -8.8635  -11.7092 C.ar      1 <0>        -0.0325
     22 C15         1.6741   -9.2999  -12.1429 C.ar      1 <0>        -0.0986
     23 C16         1.8732  -10.6367  -12.4327 C.ar      1 <0>        -0.0897
     24 C17         0.8344  -11.5374  -12.2884 C.ar      1 <0>        -0.1628
     25 C18        -0.4032  -11.1012  -11.8539 C.ar      1 <0>        -0.0865
     26 C19        -0.6011   -9.7650  -11.5600 C.ar      1 <0>        -0.0981
     27 C20         1.0512  -12.9946  -12.6054 C.3       1 <0>         0.0423
     28 N4          1.5021  -13.6969  -11.3964 N.4       1 <0>        -0.5026
     29 C21         1.7134  -15.1174  -11.7054 C.3       1 <0>         0.0328
     30 C22         2.3011  -15.8235  -10.4819 C.3       1 <0>         0.0544
     31 O3          1.3473  -15.8058   -9.4179 O.3       1 <0>        -0.5511
     32 C23         0.3764  -15.7635  -12.0738 C.3       1 <0>         0.0536
     33 O4         -0.4892  -15.7486  -10.9369 O.3       1 <0>        -0.5496
     34 H1          1.0039    1.9031    0.0027 H         1 <0>         0.0646
     35 H2         -0.5459    1.8868   -0.8726 H         1 <0>         0.0610
     36 H3         -0.5289    1.8773    0.9072 H         1 <0>         0.0746
     37 H4          0.2319   -0.1594    2.1383 H         1 <0>         0.0747
     38 H5          0.7568   -1.6008    1.2356 H         1 <0>         0.0614
     39 H6          1.7647   -0.1336    1.2338 H         1 <0>         0.0646
     40 H7         -1.9605   -0.1726   -0.8702 H         1 <0>         0.0608
     41 H8         -1.4185   -1.6235    0.0069 H         1 <0>         0.0615
     42 H9         -1.9435   -0.1821    0.9097 H         1 <0>         0.0702
     43 H10         2.6845    0.3639   -1.0254 H         1 <0>         0.1885
     44 H11        -0.0621   -2.2368   -4.7214 H         1 <0>         0.1205
     45 H12         1.6255   -1.8824   -5.1625 H         1 <0>         0.1328
     46 H13         1.7092   -6.8349   -5.1897 H         1 <0>         0.1762
     47 H14         0.1242   -5.1814   -9.9979 H         1 <0>         0.4302
     48 H15        -0.8213   -7.1438  -11.5846 H         1 <0>         0.1195
     49 H16         0.8689   -6.7973  -12.0220 H         1 <0>         0.1196
     50 H17         2.4856   -8.5962  -12.2556 H         1 <0>         0.1350
     51 H18         2.8401  -10.9775  -12.7722 H         1 <0>         0.1327
     52 H19        -1.2148  -11.8048  -11.7415 H         1 <0>         0.1330
     53 H20        -1.5670   -9.4248  -11.2169 H         1 <0>         0.1350
     54 H21         0.1162  -13.4338  -12.9532 H         1 <0>         0.1363
     55 H22         1.8084  -13.0885  -13.3838 H         1 <0>         0.1371
     56 H23         2.3677  -13.2903  -11.0745 H         1 <0>         0.4260
     57 H24         2.4040  -15.2081  -12.5438 H         1 <0>         0.1590
     58 H25         2.5405  -16.8555  -10.7381 H         1 <0>         0.0906
     59 H26         3.2079  -15.3079  -10.1656 H         1 <0>         0.0688
     60 H27         1.6532  -16.2372   -8.6083 H         1 <0>         0.3988
     61 H28        -0.0846  -15.2054  -12.8887 H         1 <0>         0.0681
     62 H29         0.5450  -16.7934  -12.3885 H         1 <0>         0.0895
     63 H30        -1.3571  -16.1434  -11.0981 H         1 <0>         0.3980
     64 H31         0.8012  -13.6100  -10.6759 H         1 <0>         0.4405
@<TRIPOS>BOND
     1    1    2 1
     2    1   34 1
     3    1   35 1
     4    1   36 1
     5    2    3 1
     6    2    4 1
     7    2    5 1
     8    3   37 1
     9    3   38 1
    10    3   39 1
    11    4   40 1
    12    4   41 1
    13    4   42 1
    14    5    9 1
    15    5    6 2
    16    6    7 1
    17    6   43 1
    18    7    8 2
    19    8    9 1
    20    8   10 1
    21   10   11 1
    22   10   44 1
    23   10   45 1
    24   11   12 1
    25   12   16 1
    26   12   13 2
    27   13   14 1
    28   13   46 1
    29   14   15 2
    30   15   16 1
    31   15   17 1
    32   17   18 am
    33   17   47 1
    34   18   19 2
    35   18   20 1
    36   20   21 1
    37   20   48 1
    38   20   49 1
    39   21   26 ar
    40   21   22 ar
    41   22   23 ar
    42   22   50 1
    43   23   24 ar
    44   23   51 1
    45   24   25 ar
    46   24   27 1
    47   25   26 ar
    48   25   52 1
    49   26   53 1
    50   27   28 1
    51   27   54 1
    52   27   55 1
    53   28   29 1
    54   28   56 1
    55   28   64 1
    56   29   30 1
    57   29   32 1
    58   29   57 1
    59   30   31 1
    60   30   58 1
    61   30   59 1
    62   31   60 1
    63   32   33 1
    64   32   61 1
    65   32   62 1
    66   33   63 1
@<TRIPOS>MOLECULE
CHEMBL522891
   36    39     0     0     0
SMALL
USER_CHARGES

@<TRIPOS>ATOM
      1 C1         -0.0167    1.3794    0.0096 C.ar      1 <0>        -0.0899
      2 C2          1.1684    2.0935    0.0021 C.ar      1 <0>        -0.1286
      3 C3          2.3774    1.4294   -0.0130 C.ar      1 <0>        -0.0564
      4 C4          2.4035    0.0338   -0.0208 C.ar      1 <0>        -0.1365
      5 C5          1.2043   -0.6806   -0.0131 C.ar      1 <0>        -0.0834
      6 C6          0.0021   -0.0041    0.0020 C.ar      1 <0>        -0.1259
      7 C7          3.6953   -0.6845   -0.0375 C.2       1 <0>         0.5595
      8 O1          4.7382   -0.0597   -0.0445 O.2       1 <0>        -0.5319
      9 N1          3.7171   -2.0321   -0.0449 N.am      1 <0>        -0.6287
     10 C8          4.9442   -2.7143   -0.0608 C.2       1 <0>         0.0416
     11 C9          6.1747   -2.1458   -0.0640 C.2       1 <0>         0.0494
     12 N2          7.0953   -3.1452   -0.0804 N.pl3     1 <0>        -0.4515
     13 H1          8.0586   -3.0315   -0.0858 H         1 <0>         0.4527
     14 N3          6.4123   -4.3678   -0.0874 N.2       1 <0>        -0.2593
     15 C10         5.1177   -4.1177   -0.0701 C.2       1 <0>         0.1165
     16 C11         4.0382   -5.1265   -0.0645 C.2       1 <0>         0.3638
     17 N4          4.2273   -6.4825   -0.0682 N.pl3     1 <0>        -0.5814
     18 H2          5.0801   -6.9447   -0.0748 H         1 <0>         0.4300
     19 C12         2.9765   -7.0695   -0.0601 C.ar      1 <0>         0.0560
     20 C13         2.5289   -8.3833   -0.0595 C.ar      1 <0>        -0.1108
     21 C14         1.1747   -8.6441   -0.0506 C.ar      1 <0>        -0.0952
     22 C15         0.2578   -7.6027   -0.0422 C.ar      1 <0>        -0.1240
     23 C16         0.6791   -6.3032   -0.0426 C.ar      1 <0>        -0.0618
     24 C17         2.0474   -6.0142   -0.0516 C.ar      1 <0>         0.0529
     25 N5          2.7549   -4.8578   -0.0495 N.2       1 <0>        -0.4805
     26 H3         -0.9605    1.9041    0.0260 H         1 <0>         0.1290
     27 H4          1.1468    3.1733    0.0078 H         1 <0>         0.1316
     28 H5          3.3017    1.9880   -0.0192 H         1 <0>         0.1377
     29 H6          1.2176   -1.7605   -0.0194 H         1 <0>         0.1298
     30 H7         -0.9265   -0.5556    0.0083 H         1 <0>         0.1314
     31 H8          2.8850   -2.5306   -0.0393 H         1 <0>         0.4257
     32 H9          6.3859   -1.0867   -0.0555 H         1 <0>         0.2136
     33 H10         3.2381   -9.1978   -0.0664 H         1 <0>         0.1261
     34 H11         0.8255   -9.6661   -0.0505 H         1 <0>         0.1332
     35 H12        -0.7998   -7.8217   -0.0357 H         1 <0>         0.1327
     36 H13        -0.0433   -5.5004   -0.0364 H         1 <0>         0.1325
@<TRIPOS>BOND
     1    1    6 ar
     2    1    2 ar
     3    1   26 1
     4    2    3 ar
     5    2   27 1
     6    3    4 ar
     7    3   28 1
     8    4    5 ar
     9    4    7 1
    10    5    6 ar
    11    5   29 1
    12    6   30 1
    13    7    8 2
    14    7    9 am
    15    9   10 1
    16    9   31 1
    17   10   15 1
    18   10   11 2
    19   11   12 1
    20   11   32 1
    21   12   13 1
    22   12   14 1
    23   14   15 2
    24   15   16 1
    25   16   25 2
    26   16   17 1
    27   17   18 1
    28   17   19 1
    29   19   24 ar
    30   19   20 ar
    31   20   21 ar
    32   20   33 1
    33   21   22 ar
    34   21   34 1
    35   22   23 ar
    36   22   35 1
    37   23   24 ar
    38   23   36 1
    39   24   25 1
@<TRIPOS>MOLECULE
CHEMBL522891
   36    39     0     0     0
SMALL
USER_CHARGES

@<TRIPOS>ATOM
      1 C1         -0.0167    1.3794    0.0096 C.ar      1 <0>        -0.0892
      2 C2          1.1683    2.0936    0.0021 C.ar      1 <0>        -0.1282
      3 C3          2.3774    1.4294   -0.0130 C.ar      1 <0>        -0.0550
      4 C4          2.4035    0.0338   -0.0208 C.ar      1 <0>        -0.1378
      5 C5          1.2042   -0.6806   -0.0131 C.ar      1 <0>        -0.0834
      6 C6          0.0021   -0.0041    0.0020 C.ar      1 <0>        -0.1263
      7 C7          3.6953   -0.6844   -0.0375 C.2       1 <0>         0.5629
      8 O1          4.7381   -0.0596   -0.0445 O.2       1 <0>        -0.5216
      9 N1          3.7170   -2.0320   -0.0449 N.am      1 <0>        -0.6310
     10 C8          4.9405   -2.7122   -0.0607 C.2       1 <0>         0.0848
     11 C9          6.2124   -2.1279   -0.0698 C.2       1 <0>         0.0525
     12 N2          7.1117   -3.0778   -0.0835 N.2       1 <0>        -0.2434
     13 H1          6.8937   -5.1881   -0.0923 H         1 <0>         0.4438
     14 N3          6.4635   -4.3188   -0.0840 N.pl3     1 <0>        -0.4667
     15 C10         5.1136   -4.0867   -0.0643 C.2       1 <0>         0.0812
     16 C11         4.0510   -5.1027   -0.0526 C.2       1 <0>         0.3521
     17 N4          4.2550   -6.4586   -0.0510 N.pl3     1 <0>        -0.5960
     18 H2          5.1126   -6.9119   -0.0574 H         1 <0>         0.4234
     19 C12         3.0097   -7.0587   -0.0379 C.ar      1 <0>         0.0578
     20 C13         2.5769   -8.3770   -0.0309 C.ar      1 <0>        -0.1122
     21 C14         1.2255   -8.6532   -0.0181 C.ar      1 <0>        -0.0933
     22 C15         0.2969   -7.6222   -0.0126 C.ar      1 <0>        -0.1224
     23 C16         0.7036   -6.3180   -0.0198 C.ar      1 <0>        -0.0617
     24 C17         2.0689   -6.0135   -0.0319 C.ar      1 <0>         0.0549
     25 N5          2.7620   -4.8491   -0.0364 N.2       1 <0>        -0.4775
     26 H3         -0.9605    1.9042    0.0260 H         1 <0>         0.1292
     27 H4          1.1468    3.1733    0.0078 H         1 <0>         0.1322
     28 H5          3.3017    1.9881   -0.0192 H         1 <0>         0.1389
     29 H6          1.2175   -1.7605   -0.0194 H         1 <0>         0.1291
     30 H7         -0.9265   -0.5556    0.0079 H         1 <0>         0.1313
     31 H8          2.8850   -2.5305   -0.0393 H         1 <0>         0.4249
     32 H9          6.4175   -1.0675   -0.0660 H         1 <0>         0.2186
     33 H10         3.2952   -9.1836   -0.0358 H         1 <0>         0.1263
     34 H11         0.8878   -9.6790   -0.0126 H         1 <0>         0.1343
     35 H12        -0.7581   -7.8530   -0.0030 H         1 <0>         0.1340
     36 H13        -0.0278   -5.5233   -0.0162 H         1 <0>         0.1337
@<TRIPOS>BOND
     1    1    6 ar
     2    1    2 ar
     3    1   26 1
     4    2    3 ar
     5    2   27 1
     6    3    4 ar
     7    3   28 1
     8    4    5 ar
     9    4    7 1
    10    5    6 ar
    11    5   29 1
    12    6   30 1
    13    7    8 2
    14    7    9 am
    15    9   31 1
    16    9   10 1
    17   10   11 1
    18   10   15 2
    19   11   12 2
    20   11   32 1
    21   12   14 1
    22   13   14 1
    23   14   15 1
    24   15   16 1
    25   16   25 2
    26   16   17 1
    27   17   18 1
    28   17   19 1
    29   19   24 ar
    30   19   20 ar
    31   20   21 ar
    32   20   33 1
    33   21   22 ar
    34   21   34 1
    35   22   23 ar
    36   22   35 1
    37   23   24 ar
    38   23   36 1
    39   24   25 1
@<TRIPOS>MOLECULE
CHEMBL496569
   52    56     0     0     0
SMALL
USER_CHARGES

@<TRIPOS>ATOM
      1 C1         -0.0167    1.3794    0.0096 C.ar      1 <0>        -0.0899
      2 C2          1.1684    2.0935    0.0021 C.ar      1 <0>        -0.1287
      3 C3          2.3774    1.4294   -0.0130 C.ar      1 <0>        -0.0564
      4 C4          2.4035    0.0338   -0.0208 C.ar      1 <0>        -0.1365
      5 C5          1.2043   -0.6806   -0.0131 C.ar      1 <0>        -0.0831
      6 C6          0.0021   -0.0041    0.0020 C.ar      1 <0>        -0.1257
      7 C7          3.6953   -0.6845   -0.0375 C.2       1 <0>         0.5596
      8 O1          4.7382   -0.0597   -0.0445 O.2       1 <0>        -0.5319
      9 N1          3.7171   -2.0321   -0.0449 N.am      1 <0>        -0.6286
     10 C8          4.9442   -2.7143   -0.0608 C.2       1 <0>         0.0419
     11 C9          6.1747   -2.1458   -0.0640 C.2       1 <0>         0.0492
     12 N2          7.0953   -3.1452   -0.0804 N.pl3     1 <0>        -0.4514
     13 H1          8.0586   -3.0315   -0.0858 H         1 <0>         0.4527
     14 N3          6.4123   -4.3678   -0.0874 N.2       1 <0>        -0.2594
     15 C10         5.1177   -4.1177   -0.0701 C.2       1 <0>         0.1163
     16 C11         4.0382   -5.1265   -0.0645 C.2       1 <0>         0.3646
     17 N4          4.2273   -6.4825   -0.0682 N.pl3     1 <0>        -0.5811
     18 H2          5.0801   -6.9447   -0.0748 H         1 <0>         0.4300
     19 C12         2.9765   -7.0695   -0.0601 C.ar      1 <0>         0.0584
     20 C13         2.5289   -8.3833   -0.0595 C.ar      1 <0>        -0.1086
     21 C14         1.1747   -8.6441   -0.0506 C.ar      1 <0>        -0.0897
     22 C15         0.2578   -7.6027   -0.0422 C.ar      1 <0>        -0.0866
     23 C16         0.6791   -6.3032   -0.0426 C.ar      1 <0>        -0.0368
     24 C17         2.0474   -6.0142   -0.0516 C.ar      1 <0>         0.0558
     25 N5          2.7549   -4.8578   -0.0495 N.2       1 <0>        -0.4789
     26 C18        -1.2179   -7.9083   -0.0331 C.3       1 <0>         0.0976
     27 N6         -1.6881   -8.0106    1.3549 N.3       1 <0>        -0.5317
     28 C19        -1.0926   -9.1737    2.0285 C.3       1 <0>         0.0140
     29 C20        -1.5615   -9.2082    3.4855 C.3       1 <0>         0.0627
     30 O2         -2.9910   -9.2355    3.5205 O.3       1 <0>        -0.3858
     31 C21        -3.6042   -8.1169    2.8739 C.3       1 <0>         0.0629
     32 C22        -3.1560   -8.0714    1.4107 C.3       1 <0>         0.0171
     33 H3         -0.9605    1.9041    0.0260 H         1 <0>         0.1289
     34 H4          1.1468    3.1733    0.0078 H         1 <0>         0.1315
     35 H5          3.3017    1.9880   -0.0192 H         1 <0>         0.1376
     36 H6          1.2176   -1.7605   -0.0194 H         1 <0>         0.1298
     37 H7         -0.9265   -0.5556    0.0083 H         1 <0>         0.1314
     38 H8          2.8850   -2.5306   -0.0393 H         1 <0>         0.4258
     39 H9          6.3859   -1.0867   -0.0555 H         1 <0>         0.2135
     40 H10         3.2381   -9.1978   -0.0664 H         1 <0>         0.1270
     41 H11         0.8255   -9.6661   -0.0505 H         1 <0>         0.1294
     42 H12        -0.0433   -5.5004   -0.0364 H         1 <0>         0.1331
     43 H13        -1.7576   -7.1093   -0.5415 H         1 <0>         0.0879
     44 H14        -1.3966   -8.8523   -0.5478 H         1 <0>         0.0478
     45 H15        -1.4067  -10.0871    1.5234 H         1 <0>         0.0435
     46 H16        -0.0059   -9.0953    1.9977 H         1 <0>         0.0908
     47 H17        -1.1684  -10.1002    3.9734 H         1 <0>         0.0977
     48 H18        -1.2016   -8.3200    4.0048 H         1 <0>         0.0599
     49 H19        -4.6884   -8.2196    2.9194 H         1 <0>         0.0988
     50 H20        -3.3037   -7.1970    3.3754 H         1 <0>         0.0606
     51 H21        -3.5754   -7.1882    0.9289 H         1 <0>         0.0883
     52 H22        -3.5030   -8.9671    0.8957 H         1 <0>         0.0444
@<TRIPOS>BOND
     1    1    6 ar
     2    1    2 ar
     3    1   33 1
     4    2    3 ar
     5    2   34 1
     6    3    4 ar
     7    3   35 1
     8    4    5 ar
     9    4    7 1
    10    5    6 ar
    11    5   36 1
    12    6   37 1
    13    7    8 2
    14    7    9 am
    15    9   10 1
    16    9   38 1
    17   10   15 1
    18   10   11 2
    19   11   12 1
    20   11   39 1
    21   12   13 1
    22   12   14 1
    23   14   15 2
    24   15   16 1
    25   16   25 2
    26   16   17 1
    27   17   18 1
    28   17   19 1
    29   19   24 ar
    30   19   20 ar
    31   20   21 ar
    32   20   40 1
    33   21   22 ar
    34   21   41 1
    35   22   23 ar
    36   22   26 1
    37   23   24 ar
    38   23   42 1
    39   24   25 1
    40   26   27 1
    41   26   43 1
    42   26   44 1
    43   27   32 1
    44   27   28 1
    45   28   29 1
    46   28   45 1
    47   28   46 1
    48   29   30 1
    49   29   47 1
    50   29   48 1
    51   30   31 1
    52   31   32 1
    53   31   49 1
    54   31   50 1
    55   32   51 1
    56   32   52 1
@<TRIPOS>MOLECULE
CHEMBL496569
   52    56     0     0     0
SMALL
USER_CHARGES

@<TRIPOS>ATOM
      1 C1         -0.0167    1.3794    0.0096 C.ar      1 <0>        -0.0892
      2 C2          1.1683    2.0936    0.0021 C.ar      1 <0>        -0.1282
      3 C3          2.3774    1.4294   -0.0130 C.ar      1 <0>        -0.0551
      4 C4          2.4035    0.0338   -0.0208 C.ar      1 <0>        -0.1379
      5 C5          1.2042   -0.6806   -0.0131 C.ar      1 <0>        -0.0830
      6 C6          0.0021   -0.0041    0.0020 C.ar      1 <0>        -0.1261
      7 C7          3.6953   -0.6844   -0.0375 C.2       1 <0>         0.5630
      8 O1          4.7381   -0.0596   -0.0445 O.2       1 <0>        -0.5216
      9 N1          3.7170   -2.0320   -0.0449 N.am      1 <0>        -0.6309
     10 C8          4.9405   -2.7122   -0.0607 C.2       1 <0>         0.0854
     11 C9          6.2124   -2.1279   -0.0698 C.2       1 <0>         0.0524
     12 N2          7.1117   -3.0778   -0.0835 N.2       1 <0>        -0.2433
     13 H1          6.8937   -5.1881   -0.0923 H         1 <0>         0.4437
     14 N3          6.4635   -4.3188   -0.0840 N.pl3     1 <0>        -0.4668
     15 C10         5.1136   -4.0867   -0.0643 C.2       1 <0>         0.0808
     16 C11         4.0510   -5.1027   -0.0526 C.2       1 <0>         0.3530
     17 N4          4.2550   -6.4586   -0.0510 N.pl3     1 <0>        -0.5957
     18 H2          5.1126   -6.9119   -0.0574 H         1 <0>         0.4234
     19 C12         3.0097   -7.0587   -0.0379 C.ar      1 <0>         0.0601
     20 C13         2.5769   -8.3770   -0.0309 C.ar      1 <0>        -0.1100
     21 C14         1.2255   -8.6532   -0.0181 C.ar      1 <0>        -0.0880
     22 C15         0.2969   -7.6222   -0.0126 C.ar      1 <0>        -0.0845
     23 C16         0.7036   -6.3180   -0.0198 C.ar      1 <0>        -0.0370
     24 C17         2.0689   -6.0135   -0.0319 C.ar      1 <0>         0.0579
     25 N5          2.7620   -4.8491   -0.0364 N.2       1 <0>        -0.4759
     26 C18        -1.1752   -7.9443    0.0009 C.3       1 <0>         0.0969
     27 N6         -1.6416   -8.0455    1.3902 N.3       1 <0>        -0.5318
     28 C19        -1.0317   -9.1988    2.0680 C.3       1 <0>         0.0140
     29 C20        -1.4973   -9.2318    3.5260 C.3       1 <0>         0.0628
     30 O2         -2.9263   -9.2750    3.5640 O.3       1 <0>        -0.3854
     31 C21        -3.5533   -8.1664    2.9135 C.3       1 <0>         0.0628
     32 C22        -3.1085   -8.1225    1.4492 C.3       1 <0>         0.0171
     33 H3         -0.9605    1.9042    0.0260 H         1 <0>         0.1291
     34 H4          1.1468    3.1733    0.0078 H         1 <0>         0.1321
     35 H5          3.3017    1.9881   -0.0192 H         1 <0>         0.1388
     36 H6          1.2175   -1.7605   -0.0194 H         1 <0>         0.1290
     37 H7         -0.9265   -0.5556    0.0079 H         1 <0>         0.1312
     38 H8          2.8850   -2.5305   -0.0393 H         1 <0>         0.4250
     39 H9          6.4175   -1.0675   -0.0660 H         1 <0>         0.2185
     40 H10         3.2952   -9.1836   -0.0358 H         1 <0>         0.1271
     41 H11         0.8878   -9.6790   -0.0126 H         1 <0>         0.1304
     42 H12        -0.0278   -5.5233   -0.0162 H         1 <0>         0.1342
     43 H13        -1.7248   -7.1538   -0.5102 H         1 <0>         0.0886
     44 H14        -1.3443   -8.8927   -0.5092 H         1 <0>         0.0484
     45 H15        -1.3364  -10.1180    1.5676 H         1 <0>         0.0438
     46 H16         0.0540   -9.1082    2.0346 H         1 <0>         0.0901
     47 H17        -1.0933  -10.1170    4.0172 H         1 <0>         0.0979
     48 H18        -1.1465   -8.3373    4.0405 H         1 <0>         0.0599
     49 H19        -4.6362   -8.2810    2.9616 H         1 <0>         0.0993
     50 H20        -3.2622   -7.2408    3.4102 H         1 <0>         0.0607
     51 H21        -3.5388   -7.2464    0.9642 H         1 <0>         0.0886
     52 H22        -3.4464   -9.0245    0.9390 H         1 <0>         0.0447
@<TRIPOS>BOND
     1    1    6 ar
     2    1    2 ar
     3    1   33 1
     4    2    3 ar
     5    2   34 1
     6    3    4 ar
     7    3   35 1
     8    4    5 ar
     9    4    7 1
    10    5    6 ar
    11    5   36 1
    12    6   37 1
    13    7    8 2
    14    7    9 am
    15    9   38 1
    16    9   10 1
    17   10   11 1
    18   10   15 2
    19   11   12 2
    20   11   39 1
    21   12   14 1
    22   13   14 1
    23   14   15 1
    24   15   16 1
    25   16   25 2
    26   16   17 1
    27   17   18 1
    28   17   19 1
    29   19   24 ar
    30   19   20 ar
    31   20   21 ar
    32   20   40 1
    33   21   22 ar
    34   21   41 1
    35   22   23 ar
    36   22   26 1
    37   23   24 ar
    38   23   42 1
    39   24   25 1
    40   26   27 1
    41   26   43 1
    42   26   44 1
    43   27   32 1
    44   27   28 1
    45   28   29 1
    46   28   45 1
    47   28   46 1
    48   29   30 1
    49   29   47 1
    50   29   48 1
    51   30   31 1
    52   31   32 1
    53   31   49 1
    54   31   50 1
    55   32   51 1
    56   32   52 1
@<TRIPOS>MOLECULE
CHEMBL504155
   29    31     0     0     0
SMALL
USER_CHARGES

@<TRIPOS>ATOM
      1 C1         -0.0184    1.5028    0.0103 C.3       1 <0>        -0.1710
      2 C2          0.0021   -0.0041    0.0020 C.2       1 <0>         0.5099
      3 O1          1.0607   -0.5962   -0.0113 O.2       1 <0>        -0.5416
      4 N1         -1.1558   -0.6938    0.0094 N.am      1 <0>        -0.6351
      5 C3         -1.1368   -2.0984    0.0016 C.2       1 <0>         0.0403
      6 C4         -0.0313   -2.8825   -0.0072 C.2       1 <0>         0.0468
      7 N2         -0.4397   -4.1785   -0.0126 N.pl3     1 <0>        -0.4523
      8 H1          0.1384   -4.9573   -0.0192 H         1 <0>         0.4523
      9 N3         -1.8401   -4.1948   -0.0069 N.2       1 <0>        -0.2608
     10 C5         -2.2675   -2.9475    0.0079 C.2       1 <0>         0.1154
     11 C6         -3.6797   -2.5132    0.0242 C.2       1 <0>         0.3638
     12 N4         -4.7615   -3.3522    0.0354 N.pl3     1 <0>        -0.5821
     13 H2         -4.7380   -4.3219    0.0342 H         1 <0>         0.4298
     14 C7         -5.8932   -2.5595    0.0489 C.ar      1 <0>         0.0556
     15 C8         -7.2553   -2.8253    0.0639 C.ar      1 <0>        -0.1111
     16 C9         -8.1556   -1.7806    0.0751 C.ar      1 <0>        -0.0953
     17 C10        -7.7088   -0.4669    0.0709 C.ar      1 <0>        -0.1244
     18 C11        -6.3721   -0.1855    0.0563 C.ar      1 <0>        -0.0616
     19 C12        -5.4404   -1.2284    0.0452 C.ar      1 <0>         0.0525
     20 N5         -4.0853   -1.2665    0.0357 N.2       1 <0>        -0.4788
     21 H3          1.0042    1.8801    0.0026 H         1 <0>         0.0978
     22 H4         -0.5455    1.8639   -0.8728 H         1 <0>         0.0931
     23 H5         -0.5286    1.8543    0.9071 H         1 <0>         0.0931
     24 H6         -2.0023   -0.2203    0.0200 H         1 <0>         0.4268
     25 H7          0.9924   -2.5383   -0.0099 H         1 <0>         0.2124
     26 H8         -7.6088   -3.8458    0.0665 H         1 <0>         0.1260
     27 H9         -9.2157   -1.9864    0.0868 H         1 <0>         0.1332
     28 H10        -8.4251    0.3414    0.0791 H         1 <0>         0.1327
     29 H11        -6.0354    0.8407    0.0528 H         1 <0>         0.1328
@<TRIPOS>BOND
     1    1    2 1
     2    1   21 1
     3    1   22 1
     4    1   23 1
     5    2    3 2
     6    2    4 am
     7    4    5 1
     8    4   24 1
     9    5   10 1
    10    5    6 2
    11    6    7 1
    12    6   25 1
    13    7    8 1
    14    7    9 1
    15    9   10 2
    16   10   11 1
    17   11   20 2
    18   11   12 1
    19   12   13 1
    20   12   14 1
    21   14   19 ar
    22   14   15 ar
    23   15   16 ar
    24   15   26 1
    25   16   17 ar
    26   16   27 1
    27   17   18 ar
    28   17   28 1
    29   18   19 ar
    30   18   29 1
    31   19   20 1
@<TRIPOS>MOLECULE
CHEMBL504155
   29    31     0     0     0
SMALL
USER_CHARGES

@<TRIPOS>ATOM
      1 C1         -0.0184    1.5028    0.0103 C.3       1 <0>        -0.1717
      2 C2          0.0021   -0.0041    0.0020 C.2       1 <0>         0.5130
      3 O1          1.0606   -0.5962   -0.0113 O.2       1 <0>        -0.5314
      4 N1         -1.1558   -0.6938    0.0094 N.am      1 <0>        -0.6372
      5 C3         -1.1368   -2.0943    0.0017 C.2       1 <0>         0.0834
      6 C4          0.0029   -2.9065   -0.0131 C.2       1 <0>         0.0510
      7 N2         -0.3733   -4.1594   -0.0164 N.2       1 <0>        -0.2448
      8 H1         -2.3122   -5.0206   -0.0034 H         1 <0>         0.4433
      9 N3         -1.7723   -4.2148   -0.0040 N.pl3     1 <0>        -0.4677
     10 C5         -2.2425   -2.9285    0.0133 C.2       1 <0>         0.0795
     11 C6         -3.6526   -2.5124    0.0364 C.2       1 <0>         0.3522
     12 N4         -4.7270   -3.3642    0.0530 N.pl3     1 <0>        -0.5967
     13 H2         -4.6933   -4.3336    0.0511 H         1 <0>         0.4231
     14 C7         -5.8671   -2.5827    0.0730 C.ar      1 <0>         0.0573
     15 C8         -7.2258   -2.8634    0.0950 C.ar      1 <0>        -0.1126
     16 C9         -8.1378   -1.8286    0.1116 C.ar      1 <0>        -0.0935
     17 C10        -7.7057   -0.5101    0.1063 C.ar      1 <0>        -0.1227
     18 C11        -6.3723   -0.2138    0.0842 C.ar      1 <0>        -0.0614
     19 C12        -5.4288   -1.2465    0.0676 C.ar      1 <0>         0.0544
     20 N5         -4.0740   -1.2681    0.0501 N.2       1 <0>        -0.4759
     21 H3          1.0042    1.8801    0.0026 H         1 <0>         0.0993
     22 H4         -0.5455    1.8639   -0.8728 H         1 <0>         0.0935
     23 H5         -0.5286    1.8543    0.9071 H         1 <0>         0.0935
     24 H6         -2.0023   -0.2203    0.0200 H         1 <0>         0.4260
     25 H7          1.0246   -2.5565   -0.0211 H         1 <0>         0.2176
     26 H8         -7.5678   -3.8878    0.0989 H         1 <0>         0.1261
     27 H9         -9.1955   -2.0463    0.1284 H         1 <0>         0.1342
     28 H10        -8.4309    0.2901    0.1194 H         1 <0>         0.1340
     29 H11        -6.0470    0.8161    0.0799 H         1 <0>         0.1340
@<TRIPOS>BOND
     1    1    2 1
     2    1   21 1
     3    1   22 1
     4    1   23 1
     5    2    3 2
     6    2    4 am
     7    4   24 1
     8    4    5 1
     9    5    6 1
    10    5   10 2
    11    6    7 2
    12    6   25 1
    13    7    9 1
    14    8    9 1
    15    9   10 1
    16   10   11 1
    17   11   20 2
    18   11   12 1
    19   12   13 1
    20   12   14 1
    21   14   19 ar
    22   14   15 ar
    23   15   16 ar
    24   15   26 1
    25   16   17 ar
    26   16   27 1
    27   17   18 ar
    28   17   28 1
    29   18   19 ar
    30   18   29 1
    31   19   20 1
@<TRIPOS>MOLECULE
CHEMBL568937
   61    65     0     0     0
SMALL
USER_CHARGES

@<TRIPOS>ATOM
      1 C1          0.2024    1.5015   -0.0074 C.3       1 <0>        -0.1009
      2 C2          0.1636   -0.0050   -0.0110 C.ar      1 <0>        -0.2405
      3 C3         -0.0596   -0.7042   -1.1827 C.ar      1 <0>         0.1895
      4 N1         -0.0879   -2.0276   -1.1523 N.ar      1 <0>        -0.5560
      5 C4          0.0943   -2.6881   -0.0178 C.ar      1 <0>         0.5586
      6 N2          0.3105   -2.0586    1.1264 N.ar      1 <0>        -0.5534
      7 C5          0.3583   -0.7285    1.1696 C.ar      1 <0>         0.2984
      8 C6          0.6071   -0.0258    2.4502 C.2       1 <0>        -0.1530
      9 C7          0.1703   -0.4339    3.7269 C.2       1 <0>        -0.0513
     10 C8          0.6172    0.4970    4.6202 C.2       1 <0>        -0.0612
     11 N3          1.3135    1.4604    3.9254 N.pl3     1 <0>        -0.5291
     12 H1          1.7394    2.2391    4.3167 H         1 <0>         0.4208
     13 C9          1.3138    1.1452    2.6163 C.2       1 <0>         0.0712
     14 C10         0.3933    0.4750    6.0704 C.2       1 <0>         0.5933
     15 O1         -0.2417   -0.4325    6.5743 O.2       1 <0>        -0.5230
     16 N4          0.8910    1.4599    6.8441 N.am      1 <0>        -0.7198
     17 C11         0.6675    1.4380    8.2918 C.3       1 <0>         0.1936
     18 H2          0.6763    0.4069    8.6452 H         1 <0>         0.1150
     19 C12        -0.6876    2.0740    8.6084 C.3       1 <0>         0.0671
     20 O2         -0.6596    3.4573    8.2511 O.3       1 <0>        -0.5678
     21 C13         1.7600    2.2145    8.9806 C.ar      1 <0>        -0.0799
     22 C14         2.2195    3.3970    8.4310 C.ar      1 <0>        -0.0878
     23 C15         3.2215    4.1098    9.0621 C.ar      1 <0>        -0.1063
     24 C16         3.7652    3.6404   10.2432 C.ar      1 <0>        -0.1060
     25 C17         3.3059    2.4573   10.7936 C.ar      1 <0>        -0.0331
     26 C18         2.2985    1.7473   10.1645 C.ar      1 <0>        -0.0994
     27 Cl1         3.9882    1.8672   12.2769 Cl        1 <0>        -0.0648
     28 N5          0.0571   -4.0729   -0.0296 N.pl3     1 <0>        -0.6373
     29 C19        -0.0448   -4.7591   -1.2435 C.ar      1 <0>         0.1827
     30 C20         0.5347   -4.2313   -2.3891 C.ar      1 <0>        -0.1179
     31 C21         0.4328   -4.9111   -3.5866 C.ar      1 <0>        -0.0989
     32 C22        -0.2449   -6.1142   -3.6431 C.ar      1 <0>        -0.1277
     33 C23        -0.8250   -6.6454   -2.5029 C.ar      1 <0>        -0.0757
     34 C24        -0.7218   -5.9730   -1.3008 C.ar      1 <0>        -0.1316
     35 C25        -1.4268   -6.7555   -0.2137 C.3       1 <0>        -0.0791
     36 C26        -2.3353   -7.7552   -0.9604 C.3       1 <0>        -0.1190
     37 C27        -1.6087   -7.9258   -2.3074 C.3       1 <0>        -0.0821
     38 H3          1.2228    1.8391   -0.1890 H         1 <0>         0.0691
     39 H4         -0.4516    1.8836   -0.7912 H         1 <0>         0.0695
     40 H5         -0.1359    1.8714    0.9605 H         1 <0>         0.0731
     41 H6         -0.2097   -0.1764   -2.1130 H         1 <0>         0.1695
     42 H7         -0.4087   -1.3165    3.9554 H         1 <0>         0.1550
     43 H8          1.7861    1.7148    1.8296 H         1 <0>         0.1845
     44 H9          1.3972    2.1834    6.4425 H         1 <0>         0.3965
     45 H10        -1.4681    1.5678    8.0404 H         1 <0>         0.0600
     46 H11        -0.8938    1.9782    9.6744 H         1 <0>         0.0600
     47 H12        -1.4879    3.9252    8.4247 H         1 <0>         0.3825
     48 H13         1.7955    3.7638    7.5079 H         1 <0>         0.1283
     49 H14         3.5800    5.0334    8.6323 H         1 <0>         0.1343
     50 H15         4.5486    4.1970   10.7359 H         1 <0>         0.1349
     51 H16         1.9365    0.8259   10.5960 H         1 <0>         0.1358
     52 H17         0.1017   -4.5664    0.8043 H         1 <0>         0.4223
     53 H18         1.0639   -3.2909   -2.3440 H         1 <0>         0.1365
     54 H19         0.8824   -4.5024   -4.4795 H         1 <0>         0.1258
     55 H20        -0.3229   -6.6430   -4.5815 H         1 <0>         0.1196
     56 H21        -0.7008   -7.2893    0.3995 H         1 <0>         0.0779
     57 H22        -2.0270   -6.0877    0.4044 H         1 <0>         0.0714
     58 H23        -2.3936   -8.7018   -0.4231 H         1 <0>         0.0778
     59 H24        -3.3288   -7.3347   -1.1156 H         1 <0>         0.0716
     60 H25        -2.3244   -8.0588   -3.1187 H         1 <0>         0.0767
     61 H26        -0.9324   -8.7789   -2.2550 H         1 <0>         0.0800
@<TRIPOS>BOND
     1    1    2 1
     2    1   38 1
     3    1   39 1
     4    1   40 1
     5    2    7 ar
     6    2    3 ar
     7    3    4 ar
     8    3   41 1
     9    4    5 ar
    10    5    6 ar
    11    5   28 1
    12    6    7 ar
    13    7    8 1
    14    8   13 2
    15    8    9 1
    16    9   10 2
    17    9   42 1
    18   10   11 1
    19   10   14 1
    20   11   12 1
    21   11   13 1
    22   13   43 1
    23   14   15 2
    24   14   16 am
    25   16   17 1
    26   16   44 1
    27   17   18 1
    28   17   19 1
    29   17   21 1
    30   19   20 1
    31   19   45 1
    32   19   46 1
    33   20   47 1
    34   21   26 ar
    35   21   22 ar
    36   22   23 ar
    37   22   48 1
    38   23   24 ar
    39   23   49 1
    40   24   25 ar
    41   24   50 1
    42   25   26 ar
    43   25   27 1
    44   26   51 1
    45   28   29 1
    46   28   52 1
    47   29   34 ar
    48   29   30 ar
    49   30   31 ar
    50   30   53 1
    51   31   32 ar
    52   31   54 1
    53   32   33 ar
    54   32   55 1
    55   33   37 1
    56   33   34 ar
    57   34   35 1
    58   35   36 1
    59   35   56 1
    60   35   57 1
    61   36   37 1
    62   36   58 1
    63   36   59 1
    64   37   60 1
    65   37   61 1
@<TRIPOS>MOLECULE
CHEMBL186846
   41    43     0     0     0
SMALL
USER_CHARGES

@<TRIPOS>ATOM
      1 C1         -0.0167    1.3781    0.0096 C.ar      1 <0>        -0.1156
      2 C2          1.1709    2.0855    0.0021 C.ar      1 <0>        -0.1187
      3 C3          2.3773    1.4107   -0.0130 C.ar      1 <0>        -0.1030
      4 C4          2.3960    0.0285   -0.0201 C.ar      1 <0>        -0.0758
      5 C5          1.2084   -0.6789   -0.0117 C.ar      1 <0>        -0.1030
      6 C6          0.0021   -0.0041    0.0020 C.ar      1 <0>        -0.1187
      7 C7          3.7112   -0.7071   -0.0376 C.3       1 <0>        -0.0943
      8 C8          4.1644   -0.9594    1.3773 C.2       1 <0>         0.5059
      9 O1          3.4863   -0.5793    2.3082 O.2       1 <0>        -0.4562
     10 N1          5.3234   -1.6075    1.6082 N.am      1 <0>        -0.6261
     11 C9          5.7415   -1.8402    2.9133 C.2       1 <0>         0.2658
     12 N2          5.1401   -1.5095    4.0355 N.2       1 <0>        -0.5174
     13 C10         5.6718   -1.8048    5.2072 C.2       1 <0>         0.0599
     14 C11         6.8585   -2.4604    5.1978 C.2       1 <0>        -0.1997
     15 S1          7.1363   -2.6200    3.4413 S.3       1 <0>         0.1081
     16 C12         7.7066   -2.9296    6.3517 C.3       1 <0>         0.0076
     17 C13         7.8731   -4.4487    6.2776 C.3       1 <0>        -0.1135
     18 C14         8.7342   -4.9251    7.4491 C.3       1 <0>        -0.1199
     19 C15        10.1088   -4.2573    7.3764 C.3       1 <0>        -0.1225
     20 C16         9.9423   -2.7382    7.4505 C.3       1 <0>        -0.1199
     21 C17         9.0812   -2.2618    6.2789 C.3       1 <0>        -0.1135
     22 H1         -0.9591    1.9053    0.0259 H         1 <0>         0.1227
     23 H2          1.1563    3.1654    0.0076 H         1 <0>         0.1233
     24 H3          3.3051    1.9634   -0.0196 H         1 <0>         0.1201
     25 H4          1.2231   -1.7588   -0.0176 H         1 <0>         0.1201
     26 H5         -0.9258   -0.5567    0.0082 H         1 <0>         0.1233
     27 H6          3.5884   -1.6586   -0.5549 H         1 <0>         0.1098
     28 H7          4.4573   -0.1052   -0.5563 H         1 <0>         0.1098
     29 H8          5.8657   -1.9115    0.8637 H         1 <0>         0.4254
     30 H9          5.1834   -1.5358    6.1322 H         1 <0>         0.1728
     31 H10         7.2222   -2.6626    7.2909 H         1 <0>         0.0962
     32 H11         6.8938   -4.9245    6.3294 H         1 <0>         0.0668
     33 H12         8.3575   -4.7158    5.3384 H         1 <0>         0.0642
     34 H13         8.2497   -4.6581    8.3883 H         1 <0>         0.0646
     35 H14         8.8528   -6.0074    7.3963 H         1 <0>         0.0652
     36 H15        10.7223   -4.5967    8.2110 H         1 <0>         0.0633
     37 H16        10.5933   -4.5244    6.4372 H         1 <0>         0.0621
     38 H17         9.4579   -2.4711    8.3897 H         1 <0>         0.0646
     39 H18        10.9216   -2.2624    7.3986 H         1 <0>         0.0652
     40 H19         9.5657   -2.5288    5.3397 H         1 <0>         0.0643
     41 H20         8.9626   -1.1795    6.3317 H         1 <0>         0.0668
@<TRIPOS>BOND
     1    1    6 ar
     2    1    2 ar
     3    1   22 1
     4    2    3 ar
     5    2   23 1
     6    3    4 ar
     7    3   24 1
     8    4    5 ar
     9    4    7 1
    10    5    6 ar
    11    5   25 1
    12    6   26 1
    13    7    8 1
    14    7   27 1
    15    7   28 1
    16    8    9 2
    17    8   10 am
    18   10   11 1
    19   10   29 1
    20   11   15 1
    21   11   12 2
    22   12   13 1
    23   13   14 2
    24   13   30 1
    25   14   15 1
    26   14   16 1
    27   16   21 1
    28   16   17 1
    29   16   31 1
    30   17   18 1
    31   17   32 1
    32   17   33 1
    33   18   19 1
    34   18   34 1
    35   18   35 1
    36   19   20 1
    37   19   36 1
    38   19   37 1
    39   20   21 1
    40   20   38 1
    41   20   39 1
    42   21   40 1
    43   21   41 1
@<TRIPOS>MOLECULE
CHEMBL203571
   44    46     0     0     0
SMALL
USER_CHARGES

@<TRIPOS>ATOM
      1 C1         -0.3705    1.7556   -0.1736 C.3       1 <0>        -0.1676
      2 C2         -0.1257    0.2473   -0.0968 C.3       1 <0>         0.1154
      3 N1          0.5933   -0.1923   -1.2951 N.pl3     1 <0>        -0.5770
      4 C3          2.0582   -0.2029   -1.3077 C.3       1 <0>         0.1111
      5 C4          2.5627   -1.5619   -0.8182 C.3       1 <0>        -0.1758
      6 C5         -0.1111   -0.5976   -2.4149 C.2       1 <0>         0.4901
      7 C6          0.5798   -1.0233   -3.5586 C.2       1 <0>        -0.2676
      8 C7         -0.1321   -1.4202   -4.6558 C.2       1 <0>         0.4564
      9 N2         -1.4986   -1.3900   -4.6050 N.pl3     1 <0>        -0.3688
     10 C8         -2.1376   -0.9690   -3.4731 C.2       1 <0>         0.5034
     11 N3         -1.4348   -0.5871   -2.4008 N.2       1 <0>        -0.5337
     12 N4         -3.4431   -1.0440   -3.7085 N.2       1 <0>        -0.5384
     13 C9         -3.6509   -1.4944   -4.9407 C.2       1 <0>         0.2578
     14 N5         -2.5011   -1.7195   -5.5265 N.2       1 <0>        -0.3379
     15 N6          0.5174   -1.8441   -5.7965 N.pl3     1 <0>        -0.6717
     16 C10         0.2883   -1.1951   -7.0132 C.ar      1 <0>         0.2512
     17 C11        -0.4720   -0.0331   -7.0500 C.ar      1 <0>        -0.1765
     18 C12        -0.6964    0.6056   -8.2537 C.ar      1 <0>         0.0221
     19 C13        -0.1651    0.0896   -9.4216 C.ar      1 <0>        -0.7111
     20 C14         0.5919   -1.0673   -9.3886 C.ar      1 <0>         0.0245
     21 C15         0.8253   -1.7075   -8.1874 C.ar      1 <0>        -0.1859
     22 S1         -0.4539    0.9076  -10.9552 S.o2      1 <0>         2.7043
     23 O1         -0.3066   -0.0733  -11.9728 O.2       1 <0>        -0.9635
     24 O2         -1.6456    1.6646  -10.7936 O.2       1 <0>        -0.9614
     25 N7          0.7743    1.9979  -11.1675 N.pl3     1 <0>        -1.2490
     26 H1          0.5851    2.2762   -0.2353 H         1 <0>         0.0540
     27 H2         -0.9656    1.9826   -1.0581 H         1 <0>         0.0610
     28 H3         -0.9056    2.0827    0.7180 H         1 <0>         0.0702
     29 H4          0.4694    0.0203    0.7878 H         1 <0>         0.0804
     30 H5         -1.0814   -0.2732   -0.0351 H         1 <0>         0.0939
     31 H6          2.4141   -0.0274   -2.3229 H         1 <0>         0.0823
     32 H7          2.4329    0.5819   -0.6506 H         1 <0>         0.0916
     33 H8          3.6526   -1.5697   -0.8276 H         1 <0>         0.0736
     34 H9          2.2068   -1.7373    0.1970 H         1 <0>         0.0635
     35 H10         2.1880   -2.3467   -1.4753 H         1 <0>         0.0589
     36 H11         1.6596   -1.0371   -3.5723 H         1 <0>         0.1718
     37 H12        -4.6200   -1.6515   -5.3908 H         1 <0>         0.2293
     38 H13         1.1330   -2.5925   -5.7544 H         1 <0>         0.4291
     39 H14        -0.8875    0.3702   -6.1383 H         1 <0>         0.1201
     40 H15        -1.2877    1.5088   -8.2831 H         1 <0>         0.1444
     41 H16         1.0047   -1.4680  -10.3025 H         1 <0>         0.1483
     42 H17         1.4209   -2.6081   -8.1616 H         1 <0>         0.1387
     43 H18         1.0680    2.2295  -12.0625 H         1 <0>         0.4216
     44 H19         1.2000    2.4050  -10.3968 H         1 <0>         0.4166
@<TRIPOS>BOND
     1    1    2 1
     2    1   26 1
     3    1   27 1
     4    1   28 1
     5    2    3 1
     6    2   29 1
     7    2   30 1
     8    3    4 1
     9    3    6 1
    10    4    5 1
    11    4   31 1
    12    4   32 1
    13    5   33 1
    14    5   34 1
    15    5   35 1
    16    6   11 2
    17    6    7 1
    18    7    8 2
    19    7   36 1
    20    8    9 1
    21    8   15 1
    22    9   14 1
    23    9   10 1
    24   10   11 1
    25   10   12 2
    26   12   13 1
    27   13   14 2
    28   13   37 1
    29   15   16 1
    30   15   38 1
    31   16   21 ar
    32   16   17 ar
    33   17   18 ar
    34   17   39 1
    35   18   19 ar
    36   18   40 1
    37   19   20 ar
    38   19   22 1
    39   20   21 ar
    40   20   41 1
    41   21   42 1
    42   22   23 2
    43   22   24 2
    44   22   25 1
    45   25   43 1
    46   25   44 1
@<TRIPOS>MOLECULE
CHEMBL524629
   51    53     0     0     0
SMALL
USER_CHARGES

@<TRIPOS>ATOM
      1 C1         -0.0187    1.5258    0.0104 C.3       1 <0>        -0.1424
      2 C2          0.0021   -0.0041    0.0020 C.3       1 <0>         0.0156
      3 C3          0.7421   -0.5109    1.2415 C.3       1 <0>        -0.1427
      4 C4         -1.4333   -0.5336    0.0129 C.3       1 <0>        -0.1468
      5 C5          0.7074   -0.4901   -1.2379 C.2       1 <0>        -0.0083
      6 C6          1.9790   -0.2319   -1.5855 C.2       1 <0>        -0.0386
      7 N1          2.2153   -0.8490   -2.7568 N.2       1 <0>        -0.4480
      8 C7          1.1320   -1.4698   -3.1277 C.2       1 <0>         0.1783
      9 O1          0.1830   -1.2702   -2.2034 O.3       1 <0>        -0.1874
     10 C8          0.9740   -2.2836   -4.3862 C.3       1 <0>        -0.0233
     11 S1          1.4238   -4.0087   -4.0512 S.3       1 <0>         0.0360
     12 C9          1.1895   -4.8185   -5.5985 C.2       1 <0>        -0.2320
     13 C10         1.3712   -6.1253   -5.9312 C.2       1 <0>         0.0938
     14 N2          1.1326   -6.5237   -7.1691 N.2       1 <0>        -0.5498
     15 C11         0.7199   -5.6765   -8.0939 C.2       1 <0>         0.3670
     16 S2          0.6397   -4.1518   -7.1640 S.3       1 <0>         0.0016
     17 N3          0.4218   -5.9090   -9.4308 N.pl3     1 <0>        -0.6843
     18 C12         0.5537   -7.2580   -9.9869 C.3       1 <0>         0.1393
     19 C13         0.1673   -7.2395  -11.4671 C.3       1 <0>        -0.1147
     20 C14        -1.3194   -6.8986  -11.6040 C.3       1 <0>        -0.1481
     21 C15        -1.7173   -6.9598  -13.0803 C.3       1 <0>        -0.0068
     22 N4         -1.4735   -8.3104  -13.6009 N.4       1 <0>        -0.5061
     23 C16        -0.0393   -8.6166  -13.5391 C.3       1 <0>        -0.0055
     24 C17         0.4231   -8.6192  -12.0805 C.3       1 <0>        -0.1411
     25 H1          1.0039    1.9031    0.0027 H         1 <0>         0.0647
     26 H2         -0.5459    1.8868   -0.8726 H         1 <0>         0.0606
     27 H3         -0.5289    1.8773    0.9072 H         1 <0>         0.0747
     28 H4          0.2319   -0.1594    2.1383 H         1 <0>         0.0747
     29 H5          0.7568   -1.6008    1.2356 H         1 <0>         0.0616
     30 H6          1.7647   -0.1336    1.2338 H         1 <0>         0.0647
     31 H7         -1.9605   -0.1726   -0.8702 H         1 <0>         0.0604
     32 H8         -1.4185   -1.6235    0.0069 H         1 <0>         0.0616
     33 H9         -1.9435   -0.1821    0.9097 H         1 <0>         0.0702
     34 H10         2.6845    0.3639   -1.0254 H         1 <0>         0.1884
     35 H11        -0.0621   -2.2368   -4.7214 H         1 <0>         0.1178
     36 H12         1.6255   -1.8824   -5.1625 H         1 <0>         0.1305
     37 H13         1.7086   -6.8330   -5.1884 H         1 <0>         0.1733
     38 H14         0.1263   -5.1782   -9.9961 H         1 <0>         0.4172
     39 H15         1.5858   -7.5936   -9.8849 H         1 <0>         0.0807
     40 H16        -0.1048   -7.9391   -9.4479 H         1 <0>         0.0766
     41 H17         0.7635   -6.4918  -11.9902 H         1 <0>         0.0993
     42 H18        -1.9113   -7.6174  -11.0374 H         1 <0>         0.0949
     43 H19        -1.4995   -5.8946  -11.2198 H         1 <0>         0.1110
     44 H20        -2.7752   -6.7174  -13.1814 H         1 <0>         0.1353
     45 H21        -1.1251   -6.2405  -13.6459 H         1 <0>         0.1316
     46 H22        -1.9838   -8.9809  -13.0459 H         1 <0>         0.4289
     47 H23         0.1416   -9.5974  -13.9789 H         1 <0>         0.1369
     48 H24         0.5172   -7.8620  -14.0949 H         1 <0>         0.1319
     49 H25         1.4886   -8.8450  -12.0368 H         1 <0>         0.1183
     50 H26        -0.1326   -9.3737  -11.5237 H         1 <0>         0.0950
     51 H27        -1.7864   -8.3621  -14.5588 H         1 <0>         0.4334
@<TRIPOS>BOND
     1    1    2 1
     2    1   25 1
     3    1   26 1
     4    1   27 1
     5    2    3 1
     6    2    4 1
     7    2    5 1
     8    3   28 1
     9    3   29 1
    10    3   30 1
    11    4   31 1
    12    4   32 1
    13    4   33 1
    14    5    9 1
    15    5    6 2
    16    6    7 1
    17    6   34 1
    18    7    8 2
    19    8    9 1
    20    8   10 1
    21   10   11 1
    22   10   35 1
    23   10   36 1
    24   11   12 1
    25   12   16 1
    26   12   13 2
    27   13   14 1
    28   13   37 1
    29   14   15 2
    30   15   16 1
    31   15   17 1
    32   17   18 1
    33   17   38 1
    34   18   19 1
    35   18   39 1
    36   18   40 1
    37   19   24 1
    38   19   20 1
    39   19   41 1
    40   20   21 1
    41   20   42 1
    42   20   43 1
    43   21   22 1
    44   21   44 1
    45   21   45 1
    46   22   23 1
    47   22   46 1
    48   22   51 1
    49   23   24 1
    50   23   47 1
    51   23   48 1
    52   24   49 1
    53   24   50 1
@<TRIPOS>MOLECULE
CHEMBL392776
   44    47     0     0     0
SMALL
USER_CHARGES

@<TRIPOS>ATOM
      1 C1          0.3017    1.5053   -0.0262 C.3       1 <0>        -0.1141
      2 C2          0.3030   -0.0016   -0.0322 C.ar      1 <0>        -0.1079
      3 C3          0.0421   -0.6823   -1.2012 C.ar      1 <0>        -0.0181
      4 C4          0.0438   -2.0778   -1.2047 C.ar      1 <0>        -0.2150
      5 C5         -0.2310   -2.8389   -2.4386 C.2       1 <0>         0.4021
      6 O1         -0.4680   -2.2724   -3.4933 O.2       1 <0>        -0.4610
      7 C6         -0.2085   -4.2528   -2.3516 C.2       1 <0>        -0.0508
      8 C7          0.0634   -4.8486   -1.1432 C.2       1 <0>         0.1431
      9 O2          0.3103   -4.1357   -0.0319 O.3       1 <0>        -0.1829
     10 C8          0.3097   -2.7863   -0.0239 C.ar      1 <0>         0.1505
     11 C9          0.5717   -2.0800    1.1517 C.ar      1 <0>         0.1505
     12 C10         0.5723   -0.6955    1.1375 C.ar      1 <0>        -0.0403
     13 N1          0.8391   -2.7692    2.3391 N.pl3     1 <0>        -0.9392
     14 C11        -0.1250   -3.1257    3.3956 C.3       1 <0>         0.0716
     15 C12         0.3077   -4.4138    4.1203 C.3       1 <0>        -0.1301
     16 C13         1.8304   -4.2299    4.3968 C.3       1 <0>        -0.5888
     17 S1          2.3202   -3.3658    2.8491 S.o2      1 <0>         2.5509
     18 O3          2.7167   -4.2990    1.8535 O.2       1 <0>        -0.9373
     19 O4          3.1098   -2.2212    3.1422 O.2       1 <0>        -0.9470
     20 C14         0.0843   -6.3206   -1.0640 C.ar      1 <0>        -0.0501
     21 C15         0.7890   -7.0641   -2.0156 C.ar      1 <0>        -0.0324
     22 C16         0.8060   -8.4391   -1.9381 C.ar      1 <0>        -0.1398
     23 C17         0.1241   -9.0881   -0.9161 C.ar      1 <0>         0.1563
     24 C18        -0.5785   -8.3536    0.0322 C.ar      1 <0>        -0.1274
     25 C19        -0.5958   -6.9769   -0.0341 C.ar      1 <0>        -0.0411
     26 Br1        -1.5052   -9.2438    1.4195 Br        1 <0>        -0.0292
     27 O5          0.1436  -10.4441   -0.8437 O.3       1 <0>        -0.4840
     28 O6         -0.4540   -5.0132   -3.4531 O.3       1 <0>        -0.4497
     29 H1          1.3030    1.8705   -0.2543 H         1 <0>         0.0782
     30 H2         -0.3983    1.8711   -0.7774 H         1 <0>         0.0740
     31 H3         -0.0006    1.8645    0.9576 H         1 <0>         0.0734
     32 H4         -0.1633   -0.1381   -2.1112 H         1 <0>         0.1495
     33 H5          0.7798   -0.1512    2.0469 H         1 <0>         0.1514
     34 H6         -0.1841   -2.3108    4.1171 H         1 <0>         0.0856
     35 H7         -1.1072   -3.2785    2.9483 H         1 <0>         0.0988
     36 H8         -0.2371   -4.5220    5.0581 H         1 <0>         0.1186
     37 H9          0.1409   -5.2816    3.4822 H         1 <0>         0.0983
     38 H10         2.0022   -3.6075    5.2750 H         1 <0>         0.1463
     39 H11         2.3362   -5.1911    4.4893 H         1 <0>         0.1466
     40 H12         1.3191   -6.5608   -2.8106 H         1 <0>         0.1441
     41 H13         1.3499   -9.0138   -2.6731 H         1 <0>         0.1478
     42 H14        -1.1378   -6.4065    0.7057 H         1 <0>         0.1413
     43 H15         0.8723  -10.7993   -0.3165 H         1 <0>         0.3991
     44 H16        -0.6344   -4.5004   -4.2528 H         1 <0>         0.4083
@<TRIPOS>BOND
     1    1    2 1
     2    1   29 1
     3    1   30 1
     4    1   31 1
     5    2   12 ar
     6    2    3 ar
     7    3    4 ar
     8    3   32 1
     9    4   10 ar
    10    4    5 1
    11    5    6 2
    12    5    7 1
    13    7    8 2
    14    7   28 1
    15    8    9 1
    16    8   20 1
    17    9   10 1
    18   10   11 ar
    19   11   12 ar
    20   11   13 1
    21   12   33 1
    22   13   17 1
    23   13   14 1
    24   14   15 1
    25   14   34 1
    26   14   35 1
    27   15   16 1
    28   15   36 1
    29   15   37 1
    30   16   17 1
    31   16   38 1
    32   16   39 1
    33   17   18 2
    34   17   19 2
    35   20   25 ar
    36   20   21 ar
    37   21   22 ar
    38   21   40 1
    39   22   23 ar
    40   22   41 1
    41   23   24 ar
    42   23   27 1
    43   24   25 ar
    44   24   26 1
    45   25   42 1
    46   27   43 1
    47   28   44 1
@<TRIPOS>MOLECULE
CHEMBL392776
   43    46     0     0     0
SMALL
USER_CHARGES

@<TRIPOS>ATOM
      1 C1          0.3016    1.5053   -0.0262 C.3       1 <0>        -0.1001
      2 C2          0.3029   -0.0016   -0.0322 C.ar      1 <0>        -0.1564
      3 C3          0.0421   -0.6823   -1.2012 C.ar      1 <0>        -0.0100
      4 C4          0.0438   -2.0778   -1.2047 C.ar      1 <0>        -0.2470
      5 C5         -0.2309   -2.8389   -2.4386 C.2       1 <0>         0.3910
      6 O1         -0.4679   -2.2724   -3.4933 O.2       1 <0>        -0.4677
      7 C6         -0.2084   -4.2528   -2.3516 C.2       1 <0>         0.1593
      8 C7          0.0634   -4.8486   -1.1432 C.2       1 <0>        -0.1813
      9 O2          0.3102   -4.1357   -0.0319 O.3       1 <0>        -0.1875
     10 C8          0.3097   -2.7863   -0.0239 C.ar      1 <0>         0.1842
     11 C9          0.5716   -2.0800    1.1518 C.ar      1 <0>         0.1092
     12 C10         0.5722   -0.6955    1.1375 C.ar      1 <0>        -0.0412
     13 N1          0.8389   -2.7692    2.3391 N.pl3     1 <0>        -0.9242
     14 C11        -0.1252   -3.1257    3.3956 C.3       1 <0>         0.0732
     15 C12         0.3075   -4.4138    4.1203 C.3       1 <0>        -0.1294
     16 C13         1.8302   -4.2299    4.3969 C.3       1 <0>        -0.5954
     17 S1          2.3201   -3.3658    2.8492 S.o2      1 <0>         2.5509
     18 O3          2.7166   -4.2990    1.8536 O.2       1 <0>        -0.9315
     19 O4          3.1096   -2.2212    3.1423 O.2       1 <0>        -0.9582
     20 C14         0.0843   -6.3206   -1.0640 C.ar      1 <0>         0.0624
     21 C15         0.7890   -7.0641   -2.0156 C.ar      1 <0>        -0.0540
     22 C16         0.8060   -8.4391   -1.9381 C.ar      1 <0>        -0.1375
     23 C17         0.1241   -9.0881   -0.9161 C.ar      1 <0>         0.0980
     24 C18        -0.5785   -8.3536    0.0322 C.ar      1 <0>        -0.1133
     25 C19        -0.5958   -6.9769   -0.0341 C.ar      1 <0>        -0.0877
     26 Br1        -1.5052   -9.2438    1.4195 Br        1 <0>        -0.0655
     27 O5          0.1436  -10.4441   -0.8437 O.3       1 <0>        -0.4891
     28 O6         -0.4539   -5.0132   -3.4531 O.3       1 <0>        -0.6540
     29 H1          1.3030    1.8705   -0.2543 H         1 <0>         0.0652
     30 H2         -0.3984    1.8711   -0.7774 H         1 <0>         0.0642
     31 H3         -0.0007    1.8645    0.9576 H         1 <0>         0.0623
     32 H4         -0.1632   -0.1381   -2.1112 H         1 <0>         0.1347
     33 H5          0.7797   -0.1512    2.0470 H         1 <0>         0.1348
     34 H6         -0.1843   -2.3108    4.1171 H         1 <0>         0.0771
     35 H7         -1.1074   -3.2785    2.9482 H         1 <0>         0.0972
     36 H8         -0.2374   -4.5220    5.0581 H         1 <0>         0.1113
     37 H9          0.1407   -5.2816    3.4822 H         1 <0>         0.0994
     38 H10         2.0020   -3.6075    5.2751 H         1 <0>         0.1397
     39 H11         2.3360   -5.1911    4.4894 H         1 <0>         0.1416
     40 H12         1.3191   -6.5608   -2.8106 H         1 <0>         0.1360
     41 H13         1.3499   -9.0138   -2.6731 H         1 <0>         0.1306
     42 H14        -1.1378   -6.4065    0.7057 H         1 <0>         0.1277
     43 H15         0.8723  -10.7993   -0.3165 H         1 <0>         0.3812
@<TRIPOS>BOND
     1    1    2 1
     2    1   29 1
     3    1   30 1
     4    1   31 1
     5    2   12 ar
     6    2    3 ar
     7    3    4 ar
     8    3   32 1
     9    4   10 ar
    10    4    5 1
    11    5    6 2
    12    5    7 1
    13    7    8 2
    14    7   28 1
    15    8    9 1
    16    8   20 1
    17    9   10 1
    18   10   11 ar
    19   11   12 ar
    20   11   13 1
    21   12   33 1
    22   13   17 1
    23   13   14 1
    24   14   15 1
    25   14   34 1
    26   14   35 1
    27   15   16 1
    28   15   36 1
    29   15   37 1
    30   16   17 1
    31   16   38 1
    32   16   39 1
    33   17   18 2
    34   17   19 2
    35   20   25 ar
    36   20   21 ar
    37   21   22 ar
    38   21   40 1
    39   22   23 ar
    40   22   41 1
    41   23   24 ar
    42   23   27 1
    43   24   25 ar
    44   24   26 1
    45   25   42 1
    46   27   43 1
@<TRIPOS>MOLECULE
CHEMBL192440
   57    61     0     0     0
SMALL
USER_CHARGES

@<TRIPOS>ATOM
      1 C1          0.2239    1.5025   -0.1440 C.3       1 <0>        -0.1445
      2 C2          0.0018   -0.0042    0.0021 C.3       1 <0>        -0.0597
      3 C3          0.7307   -0.5034    1.2230 C.ar      1 <0>        -0.0967
      4 C4          2.1019   -0.3514    1.3181 C.ar      1 <0>        -0.0570
      5 C5          2.7729   -0.8078    2.4356 C.ar      1 <0>        -0.1494
      6 C6          2.0690   -1.4195    3.4647 C.ar      1 <0>         0.1699
      7 C7          0.6920   -1.5701    3.3664 C.ar      1 <0>        -0.1573
      8 C8          0.0263   -1.1073    2.2483 C.ar      1 <0>        -0.0818
      9 N1          2.7459   -1.8834    4.5981 N.am      1 <0>        -0.5525
     10 C9          4.1698   -1.6492    4.8659 C.3       1 <0>         0.1675
     11 C10         4.3597   -1.9422    6.3707 C.3       1 <0>        -0.1227
     12 C11         3.1968   -2.9222    6.6503 C.3       1 <0>        -0.1541
     13 C12         2.1743   -2.5959    5.5842 C.2       1 <0>         0.5158
     14 O1          1.0089   -2.9306    5.6137 O.2       1 <0>        -0.5066
     15 C13         4.5285   -0.2169    4.5642 C.ar      1 <0>        -0.0990
     16 C14         3.6593    0.8008    4.9099 C.ar      1 <0>        -0.0950
     17 C15         3.9883    2.1146    4.6332 C.ar      1 <0>        -0.1146
     18 C16         5.1868    2.4107    4.0111 C.ar      1 <0>        -0.1129
     19 C17         6.0564    1.3930    3.6662 C.ar      1 <0>        -0.1163
     20 C18         5.7293    0.0795    3.9468 C.ar      1 <0>        -0.1091
     21 C19         0.5278   -0.7105   -1.2208 C.2       1 <0>         0.5263
     22 O2          1.4080   -1.5378   -1.1117 O.2       1 <0>        -0.4977
     23 N2          0.0201   -0.4228   -2.4357 N.am      1 <0>        -0.6368
     24 C20         0.5093   -1.0797   -3.5731 C.2       1 <0>         0.3042
     25 C21         1.5166   -2.0578   -3.5913 C.2       1 <0>        -0.2589
     26 C22         1.6992   -2.4414   -4.8752 C.2       1 <0>         0.1301
     27 N3          0.8428   -1.7361   -5.6438 N.pl3     1 <0>        -0.4677
     28 H1          0.7531   -1.8045   -6.6072 H         1 <0>         0.4388
     29 N4          0.1022   -0.8922   -4.8063 N.2       1 <0>        -0.3192
     30 C23         2.6844   -3.4729   -5.3614 C.3       1 <0>        -0.0982
     31 C24         3.3159   -3.2532   -6.7376 C.3       1 <0>        -0.1702
     32 C25         2.2650   -4.3481   -6.5442 C.3       1 <0>        -0.1700
     33 H2          1.2899    1.7040   -0.2496 H         1 <0>         0.0653
     34 H3         -0.3033    1.8635   -1.0270 H         1 <0>         0.0645
     35 H4         -0.1565    2.0133    0.7405 H         1 <0>         0.0759
     36 H5         -1.0642   -0.2057    0.1077 H         1 <0>         0.1105
     37 H6          2.6487    0.1243    0.5174 H         1 <0>         0.1207
     38 H7          3.8439   -0.6895    2.5090 H         1 <0>         0.1286
     39 H8          0.1419   -2.0457    4.1649 H         1 <0>         0.1536
     40 H9         -1.0451   -1.2205    2.1731 H         1 <0>         0.1253
     41 H10         4.7820   -2.3257    4.2696 H         1 <0>         0.0985
     42 H11         5.3231   -2.4168    6.5571 H         1 <0>         0.1002
     43 H12         4.2539   -1.0325    6.9617 H         1 <0>         0.0897
     44 H13         3.5361   -3.9537    6.5559 H         1 <0>         0.1122
     45 H14         2.7796   -2.7461    7.6418 H         1 <0>         0.1098
     46 H15         2.7230    0.5695    5.3960 H         1 <0>         0.1171
     47 H16         3.3089    2.9097    4.9027 H         1 <0>         0.1226
     48 H17         5.4435    3.4371    3.7943 H         1 <0>         0.1230
     49 H18         6.9925    1.6243    3.1799 H         1 <0>         0.1249
     50 H19         6.4103   -0.7153    3.6807 H         1 <0>         0.1253
     51 H20        -0.6838    0.2388   -2.5229 H         1 <0>         0.4157
     52 H21         2.0507   -2.4365   -2.7324 H         1 <0>         0.1727
     53 H22         3.3037   -3.9316   -4.5906 H         1 <0>         0.1339
     54 H23         3.0188   -2.3625   -7.2912 H         1 <0>         0.0947
     55 H24         4.3510   -3.5672   -6.8723 H         1 <0>         0.1078
     56 H25         2.6086   -5.3825   -6.5517 H         1 <0>         0.1079
     57 H26         1.2764   -4.1778   -6.9707 H         1 <0>         0.0949
@<TRIPOS>BOND
     1    1    2 1
     2    1   33 1
     3    1   34 1
     4    1   35 1
     5    2    3 1
     6    2   21 1
     7    2   36 1
     8    3    8 ar
     9    3    4 ar
    10    4    5 ar
    11    4   37 1
    12    5    6 ar
    13    5   38 1
    14    6    7 ar
    15    6    9 1
    16    7    8 ar
    17    7   39 1
    18    8   40 1
    19    9   13 am
    20    9   10 1
    21   10   11 1
    22   10   15 1
    23   10   41 1
    24   11   12 1
    25   11   42 1
    26   11   43 1
    27   12   13 1
    28   12   44 1
    29   12   45 1
    30   13   14 2
    31   15   20 ar
    32   15   16 ar
    33   16   17 ar
    34   16   46 1
    35   17   18 ar
    36   17   47 1
    37   18   19 ar
    38   18   48 1
    39   19   20 ar
    40   19   49 1
    41   20   50 1
    42   21   22 2
    43   21   23 am
    44   23   24 1
    45   23   51 1
    46   24   29 2
    47   24   25 1
    48   25   26 2
    49   25   52 1
    50   26   27 1
    51   26   30 1
    52   27   28 1
    53   27   29 1
    54   30   32 1
    55   30   31 1
    56   30   53 1
    57   31   32 1
    58   31   54 1
    59   31   55 1
    60   32   56 1
    61   32   57 1
@<TRIPOS>MOLECULE
CHEMBL192440
   57    61     0     0     0
SMALL
USER_CHARGES

@<TRIPOS>ATOM
      1 C1         -0.2730    1.4956   -0.1224 C.3       1 <0>        -0.1445
      2 C2          0.0023   -0.0042    0.0022 C.3       1 <0>        -0.0577
      3 C3          0.7076   -0.4902   -1.2377 C.ar      1 <0>        -0.0998
      4 C4          0.1009   -0.3577   -2.4732 C.ar      1 <0>        -0.0569
      5 C5          0.7447   -0.8021   -3.6115 C.ar      1 <0>        -0.1491
      6 C6          2.0028   -1.3820   -3.5143 C.ar      1 <0>         0.1720
      7 C7          2.6096   -1.5131   -2.2721 C.ar      1 <0>        -0.1572
      8 C8          1.9626   -1.0624   -1.1381 C.ar      1 <0>        -0.0810
      9 N1          2.6575   -1.8336   -4.6655 N.am      1 <0>        -0.5528
     10 C9          2.1719   -1.6163   -6.0334 C.3       1 <0>         0.1674
     11 C10         3.3872   -1.8822   -6.9492 C.3       1 <0>        -0.1227
     12 C11         4.2351   -2.8381   -6.0784 C.3       1 <0>        -0.1541
     13 C12         3.8148   -2.5173   -4.6610 C.2       1 <0>         0.5161
     14 O1          4.4311   -2.8332   -3.6653 O.2       1 <0>        -0.5063
     15 C13         1.6955   -0.1962   -6.1982 C.ar      1 <0>        -0.0993
     16 C14         2.4037    0.8417   -5.6218 C.ar      1 <0>        -0.0953
     17 C15         1.9666    2.1444   -5.7730 C.ar      1 <0>        -0.1148
     18 C16         0.8217    2.4093   -6.5010 C.ar      1 <0>        -0.1129
     19 C17         0.1141    1.3715   -7.0781 C.ar      1 <0>        -0.1161
     20 C18         0.5535    0.0692   -6.9305 C.ar      1 <0>        -0.1088
     21 C19        -1.3016   -0.7429    0.1605 C.2       1 <0>         0.5240
     22 O2         -1.6263   -1.5815   -0.6534 O.2       1 <0>        -0.4871
     23 N2         -2.1070   -0.4717    1.2066 N.am      1 <0>        -0.6523
     24 C20        -3.3139   -1.1554    1.3531 C.2       1 <0>         0.3076
     25 C21        -3.8005   -2.1155    0.5201 C.2       1 <0>        -0.2700
     26 C22        -5.0316   -2.5389    1.0282 C.2       1 <0>         0.1217
     27 N3         -5.2794   -1.8643    2.1216 N.2       1 <0>        -0.2797
     28 H1         -4.1287   -0.3712    3.0954 H         1 <0>         0.4363
     29 N4         -4.2105   -0.9889    2.3521 N.pl3     1 <0>        -0.4914
     30 C23        -5.9218   -3.5921    0.4205 C.3       1 <0>        -0.0848
     31 C24        -5.6574   -3.9873   -1.0337 C.3       1 <0>        -0.1632
     32 C25        -6.8887   -3.1507   -0.6801 C.3       1 <0>        -0.1632
     33 H2          0.6701    2.0299   -0.2369 H         1 <0>         0.0772
     34 H3         -0.9022    1.6784   -0.9935 H         1 <0>         0.0662
     35 H4         -0.7832    1.8471    0.7744 H         1 <0>         0.0623
     36 H5          0.6315   -0.1870    0.8733 H         1 <0>         0.1106
     37 H6         -0.8775    0.0934   -2.5482 H         1 <0>         0.1204
     38 H7          0.2700   -0.6990   -4.5761 H         1 <0>         0.1292
     39 H8          3.5878   -1.9640   -2.1931 H         1 <0>         0.1540
     40 H9          2.4357   -1.1604   -0.1722 H         1 <0>         0.1252
     41 H10         1.3667   -2.3141   -6.2631 H         1 <0>         0.0989
     42 H11         3.0791   -2.3679   -7.8751 H         1 <0>         0.1006
     43 H12         3.9290   -0.9593   -7.1562 H         1 <0>         0.0897
     44 H13         4.0097   -3.8765   -6.3214 H         1 <0>         0.1126
     45 H14         5.2976   -2.6358   -6.2134 H         1 <0>         0.1100
     46 H15         3.2982    0.6348   -5.0531 H         1 <0>         0.1170
     47 H16         2.5195    2.9553   -5.3221 H         1 <0>         0.1225
     48 H17         0.4799    3.4270   -6.6185 H         1 <0>         0.1230
     49 H18        -0.7806    1.5784   -7.6465 H         1 <0>         0.1251
     50 H19         0.0026   -0.7413   -7.3845 H         1 <0>         0.1257
     51 H20        -1.8474    0.1989    1.8575 H         1 <0>         0.4118
     52 H21        -3.3209   -2.4841   -0.3746 H         1 <0>         0.1737
     53 H22        -6.2578   -4.3739    1.1017 H         1 <0>         0.1214
     54 H23        -4.8396   -3.4856   -1.5509 H         1 <0>         0.1013
     55 H24        -5.8193   -5.0294   -1.3095 H         1 <0>         0.1019
     56 H25        -7.8605   -3.6424   -0.7232 H         1 <0>         0.1011
     57 H26        -6.8808   -2.0985   -0.9646 H         1 <0>         0.0948
@<TRIPOS>BOND
     1    1    2 1
     2    1   33 1
     3    1   34 1
     4    1   35 1
     5    2    3 1
     6    2   21 1
     7    2   36 1
     8    3    8 ar
     9    3    4 ar
    10    4    5 ar
    11    4   37 1
    12    5    6 ar
    13    5   38 1
    14    6    7 ar
    15    6    9 1
    16    7    8 ar
    17    7   39 1
    18    8   40 1
    19    9   13 am
    20    9   10 1
    21   10   11 1
    22   10   15 1
    23   10   41 1
    24   11   12 1
    25   11   42 1
    26   11   43 1
    27   12   13 1
    28   12   44 1
    29   12   45 1
    30   13   14 2
    31   15   20 ar
    32   15   16 ar
    33   16   17 ar
    34   16   46 1
    35   17   18 ar
    36   17   47 1
    37   18   19 ar
    38   18   48 1
    39   19   20 ar
    40   19   49 1
    41   20   50 1
    42   21   22 2
    43   21   23 am
    44   23   51 1
    45   23   24 1
    46   24   25 2
    47   24   29 1
    48   25   26 1
    49   25   52 1
    50   26   27 2
    51   26   30 1
    52   27   29 1
    53   28   29 1
    54   30   32 1
    55   30   31 1
    56   30   53 1
    57   31   32 1
    58   31   54 1
    59   31   55 1
    60   32   56 1
    61   32   57 1
@<TRIPOS>MOLECULE
CHEMBL192440
   57    61     0     0     0
SMALL
USER_CHARGES

@<TRIPOS>ATOM
      1 C1         -0.0517    1.5248    0.0298 C.3       1 <0>        -0.1452
      2 C2          0.0021   -0.0040    0.0020 C.3       1 <0>        -0.0588
      3 C3          0.7310   -0.5033    1.2229 C.ar      1 <0>        -0.0966
      4 C4          2.0407   -0.1213    1.4488 C.ar      1 <0>        -0.0569
      5 C5          2.7114   -0.5771    2.5668 C.ar      1 <0>        -0.1553
      6 C6          2.0690   -1.4195    3.4647 C.ar      1 <0>         0.1702
      7 C7          0.7536   -1.8008    3.2352 C.ar      1 <0>        -0.1519
      8 C8          0.0868   -1.3377    2.1178 C.ar      1 <0>        -0.0821
      9 N1          2.7459   -1.8834    4.5981 N.am      1 <0>        -0.5530
     10 C9          2.1233   -2.6666    5.6717 C.3       1 <0>         0.1676
     11 C10         3.0952   -2.5709    6.8686 C.3       1 <0>        -0.1224
     12 C11         4.4429   -2.3026    6.1597 C.3       1 <0>        -0.1541
     13 C12         4.0513   -1.6738    4.8406 C.2       1 <0>         0.5153
     14 O1          4.8050   -1.0666    4.1095 O.2       1 <0>        -0.5051
     15 C13         0.7853   -2.0779    6.0381 C.ar      1 <0>        -0.0989
     16 C14         0.6253   -0.7059    6.0924 C.ar      1 <0>        -0.0945
     17 C15        -0.6020   -0.1659    6.4284 C.ar      1 <0>        -0.1144
     18 C16        -1.6695   -0.9979    6.7098 C.ar      1 <0>        -0.1129
     19 C17        -1.5098   -2.3699    6.6546 C.ar      1 <0>        -0.1166
     20 C18        -0.2836   -2.9099    6.3144 C.ar      1 <0>        -0.1096
     21 C19         0.7285   -0.4587   -1.2376 C.2       1 <0>         0.5253
     22 O2          1.7387   -1.1228   -1.1393 O.2       1 <0>        -0.4965
     23 N2          0.2557   -0.1274   -2.4555 N.am      1 <0>        -0.6367
     24 C20         0.9313   -0.5502   -3.6083 C.2       1 <0>         0.3042
     25 C21         2.1024   -1.3242   -3.6409 C.2       1 <0>        -0.2589
     26 C22         2.4359   -1.5178   -4.9371 C.2       1 <0>         0.1303
     27 N3          1.5144   -0.8923   -5.6996 N.pl3     1 <0>        -0.4678
     28 H1          1.5015   -0.8635   -6.6690 H         1 <0>         0.4388
     29 N4          0.5769   -0.2967   -4.8461 N.2       1 <0>        -0.3194
     30 C23         3.6256   -2.2937   -5.4408 C.3       1 <0>        -0.0983
     31 C24         4.2926   -1.8069   -6.7289 C.3       1 <0>        -0.1701
     32 C25         3.4540   -3.0866   -6.7381 C.3       1 <0>        -0.1700
     33 H2          0.9625    1.9240    0.0360 H         1 <0>         0.0661
     34 H3         -0.5789    1.8858   -0.8533 H         1 <0>         0.0646
     35 H4         -0.5771    1.8536    0.9264 H         1 <0>         0.0757
     36 H5         -1.0121   -0.4033   -0.0042 H         1 <0>         0.1098
     37 H6          2.5397    0.5338    0.7501 H         1 <0>         0.1220
     38 H7          3.7345   -0.2790    2.7423 H         1 <0>         0.1528
     39 H8          0.2514   -2.4562    3.9315 H         1 <0>         0.1295
     40 H9         -0.9375   -1.6307    1.9409 H         1 <0>         0.1237
     41 H10         2.0072   -3.7053    5.3623 H         1 <0>         0.0981
     42 H11         2.8271   -1.7418    7.5235 H         1 <0>         0.0897
     43 H12         3.1257   -3.5093    7.4224 H         1 <0>         0.1001
     44 H13         5.0527   -1.6159    6.7467 H         1 <0>         0.1103
     45 H14         4.9767   -3.2375    5.9887 H         1 <0>         0.1115
     46 H15         1.4593   -0.0559    5.8725 H         1 <0>         0.1173
     47 H16        -0.7268    0.9060    6.4715 H         1 <0>         0.1226
     48 H17        -2.6282   -0.5760    6.9730 H         1 <0>         0.1230
     49 H18        -2.3437   -3.0199    6.8748 H         1 <0>         0.1249
     50 H19        -0.1598   -3.9817    6.2677 H         1 <0>         0.1252
     51 H20        -0.5522    0.4037   -2.5340 H         1 <0>         0.4155
     52 H21         2.6411   -1.6985   -2.7830 H         1 <0>         0.1729
     53 H22         4.2684   -2.7208   -4.6712 H         1 <0>         0.1341
     54 H23         3.8709   -0.9254   -7.2119 H         1 <0>         0.0947
     55 H24         5.3745   -1.9136   -6.8067 H         1 <0>         0.1079
     56 H25         3.9844   -4.0352   -6.8219 H         1 <0>         0.1078
     57 H26         2.4807   -3.0471   -7.2271 H         1 <0>         0.0948
@<TRIPOS>BOND
     1    1    2 1
     2    1   33 1
     3    1   34 1
     4    1   35 1
     5    2    3 1
     6    2   21 1
     7    2   36 1
     8    3    8 ar
     9    3    4 ar
    10    4    5 ar
    11    4   37 1
    12    5    6 ar
    13    5   38 1
    14    6    7 ar
    15    6    9 1
    16    7    8 ar
    17    7   39 1
    18    8   40 1
    19    9   13 am
    20    9   10 1
    21   10   11 1
    22   10   15 1
    23   10   41 1
    24   11   12 1
    25   11   42 1
    26   11   43 1
    27   12   13 1
    28   12   44 1
    29   12   45 1
    30   13   14 2
    31   15   20 ar
    32   15   16 ar
    33   16   17 ar
    34   16   46 1
    35   17   18 ar
    36   17   47 1
    37   18   19 ar
    38   18   48 1
    39   19   20 ar
    40   19   49 1
    41   20   50 1
    42   21   22 2
    43   21   23 am
    44   23   24 1
    45   23   51 1
    46   24   29 2
    47   24   25 1
    48   25   26 2
    49   25   52 1
    50   26   27 1
    51   26   30 1
    52   27   28 1
    53   27   29 1
    54   30   32 1
    55   30   31 1
    56   30   53 1
    57   31   32 1
    58   31   54 1
    59   31   55 1
    60   32   56 1
    61   32   57 1
@<TRIPOS>MOLECULE
CHEMBL192440
   57    61     0     0     0
SMALL
USER_CHARGES

@<TRIPOS>ATOM
      1 C1          0.0146    1.5257    0.0294 C.3       1 <0>        -0.1452
      2 C2          0.0020   -0.0040    0.0020 C.3       1 <0>        -0.0569
      3 C3          0.7074   -0.4901   -1.2379 C.ar      1 <0>        -0.0997
      4 C4          0.2390   -0.1241   -2.4864 C.ar      1 <0>        -0.0568
      5 C5          0.8832   -0.5678   -3.6246 C.ar      1 <0>        -0.1551
      6 C6          2.0028   -1.3820   -3.5143 C.ar      1 <0>         0.1723
      7 C7          2.4710   -1.7473   -2.2590 C.ar      1 <0>        -0.1518
      8 C8          1.8251   -1.2963   -1.1245 C.ar      1 <0>        -0.0814
      9 N1          2.6575   -1.8336   -4.6655 N.am      1 <0>        -0.5534
     10 C9          3.9179   -2.5855   -4.6603 C.3       1 <0>         0.1675
     11 C10         4.4661   -2.4810   -6.1008 C.3       1 <0>        -0.1224
     12 C11         3.1720   -2.2480   -6.9145 C.3       1 <0>        -0.1541
     13 C12         2.2098   -1.6396   -5.9181 C.2       1 <0>         0.5156
     14 O1          1.1850   -1.0590   -6.2074 O.2       1 <0>        -0.5044
     15 C13         4.8889   -1.9688   -3.6868 C.ar      1 <0>        -0.0990
     16 C14         4.9814   -0.5937   -3.5802 C.ar      1 <0>        -0.0948
     17 C15         5.8721   -0.0280   -2.6871 C.ar      1 <0>        -0.1146
     18 C16         6.6701   -0.8375   -1.9004 C.ar      1 <0>        -0.1129
     19 C17         6.5769   -2.2126   -2.0063 C.ar      1 <0>        -0.1165
     20 C18         5.6831   -2.7783   -2.8963 C.ar      1 <0>        -0.1095
     21 C19        -1.4228   -0.4946   -0.0058 C.2       1 <0>         0.5229
     22 O2         -1.8259   -1.1723   -0.9275 O.2       1 <0>        -0.4860
     23 N2         -2.2493   -0.1804    1.0114 N.am      1 <0>        -0.6522
     24 C20        -3.5680   -0.6345    1.0042 C.2       1 <0>         0.3072
     25 C21        -4.1503   -1.3983    0.0398 C.2       1 <0>        -0.2699
     26 C22        -5.4755   -1.6292    0.4189 C.2       1 <0>         0.1220
     27 N3         -5.6862   -1.0309    1.5634 N.2       1 <0>        -0.2799
     28 H1         -4.3681    0.1141    2.7689 H         1 <0>         0.4362
     29 N4         -4.4990   -0.4007    1.9573 N.pl3     1 <0>        -0.4915
     30 C23        -6.4887   -2.4298   -0.3579 C.3       1 <0>        -0.0851
     31 C24        -6.1812   -2.7226   -1.8278 C.3       1 <0>        -0.1632
     32 C25        -7.2652   -1.7072   -1.4605 C.3       1 <0>        -0.1631
     33 H2          1.0452    1.8805    0.0350 H         1 <0>         0.0771
     34 H3         -0.4969    1.9091   -0.8535 H         1 <0>         0.0669
     35 H4         -0.4956    1.8772    0.9262 H         1 <0>         0.0624
     36 H5          0.5135   -0.3875    0.8849 H         1 <0>         0.1099
     37 H6         -0.6318    0.5091   -2.5715 H         1 <0>         0.1217
     38 H7          0.5164   -0.2823   -4.5995 H         1 <0>         0.1534
     39 H8          3.3412   -2.3807   -2.1699 H         1 <0>         0.1301
     40 H9          2.1912   -1.5767   -0.1479 H         1 <0>         0.1235
     41 H10         3.7340   -3.6282   -4.4014 H         1 <0>         0.0984
     42 H11         5.1462   -1.6349   -6.1989 H         1 <0>         0.0898
     43 H12         4.9538   -3.4085   -6.4008 H         1 <0>         0.1004
     44 H13         3.3583   -1.5592   -7.7385 H         1 <0>         0.1106
     45 H14         2.7806   -3.1942   -7.2880 H         1 <0>         0.1119
     46 H15         4.3580    0.0387   -4.1948 H         1 <0>         0.1173
     47 H16         5.9449    1.0464   -2.6044 H         1 <0>         0.1226
     48 H17         7.3665   -0.3955   -1.2032 H         1 <0>         0.1231
     49 H18         7.2006   -2.8450   -1.3919 H         1 <0>         0.1250
     50 H19         5.6077   -3.8527   -2.9764 H         1 <0>         0.1254
     51 H20        -1.9270    0.3615    1.7485 H         1 <0>         0.4116
     52 H21        -3.6733   -1.7610   -0.8587 H         1 <0>         0.1738
     53 H22        -7.0161   -3.1972    0.2089 H         1 <0>         0.1213
     54 H23        -5.2461   -2.3361   -2.2330 H         1 <0>         0.1017
     55 H24        -6.5061   -3.6829   -2.2283 H         1 <0>         0.1019
     56 H25        -8.3032   -1.9994   -1.6195 H         1 <0>         0.1011
     57 H26        -7.0431   -0.6527   -1.6241 H         1 <0>         0.0949
@<TRIPOS>BOND
     1    1    2 1
     2    1   33 1
     3    1   34 1
     4    1   35 1
     5    2    3 1
     6    2   21 1
     7    2   36 1
     8    3    8 ar
     9    3    4 ar
    10    4    5 ar
    11    4   37 1
    12    5    6 ar
    13    5   38 1
    14    6    7 ar
    15    6    9 1
    16    7    8 ar
    17    7   39 1
    18    8   40 1
    19    9   13 am
    20    9   10 1
    21   10   11 1
    22   10   15 1
    23   10   41 1
    24   11   12 1
    25   11   42 1
    26   11   43 1
    27   12   13 1
    28   12   44 1
    29   12   45 1
    30   13   14 2
    31   15   20 ar
    32   15   16 ar
    33   16   17 ar
    34   16   46 1
    35   17   18 ar
    36   17   47 1
    37   18   19 ar
    38   18   48 1
    39   19   20 ar
    40   19   49 1
    41   20   50 1
    42   21   22 2
    43   21   23 am
    44   23   51 1
    45   23   24 1
    46   24   25 2
    47   24   29 1
    48   25   26 1
    49   25   52 1
    50   26   27 2
    51   26   30 1
    52   27   29 1
    53   28   29 1
    54   30   32 1
    55   30   31 1
    56   30   53 1
    57   31   32 1
    58   31   54 1
    59   31   55 1
    60   32   56 1
    61   32   57 1
@<TRIPOS>MOLECULE
CHEMBL192440
   57    61     0     0     0
SMALL
USER_CHARGES

@<TRIPOS>ATOM
      1 C1         -0.2736    1.4956   -0.1227 C.3       1 <0>        -0.1448
      2 C2          0.0018   -0.0043    0.0019 C.3       1 <0>        -0.0598
      3 C3          0.7072   -0.4902   -1.2379 C.ar      1 <0>        -0.0970
      4 C4          1.9344    0.0430   -1.5873 C.ar      1 <0>        -0.0567
      5 C5          2.5835   -0.4002   -2.7229 C.ar      1 <0>        -0.1498
      6 C6          2.0027   -1.3827   -3.5141 C.ar      1 <0>         0.1700
      7 C7          0.7704   -1.9165   -3.1602 C.ar      1 <0>        -0.1576
      8 C8          0.1287   -1.4724   -2.0207 C.ar      1 <0>        -0.0816
      9 N1          2.6575   -1.8336   -4.6655 N.am      1 <0>        -0.5525
     10 C9          4.0185   -1.4424   -5.0510 C.3       1 <0>         0.1683
     11 C10         4.4658   -2.4853   -6.0992 C.3       1 <0>        -0.1229
     12 C11         3.1096   -2.9590   -6.6713 C.3       1 <0>        -0.1541
     13 C12         2.1230   -2.6852   -5.5577 C.2       1 <0>         0.5158
     14 O1          1.0105   -3.1625   -5.4823 O.2       1 <0>        -0.5070
     15 C13         4.9317   -1.4824   -3.8529 C.ar      1 <0>        -0.1010
     16 C14         4.8209   -2.5086   -2.9334 C.ar      1 <0>        -0.0932
     17 C15         5.6586   -2.5453   -1.8344 C.ar      1 <0>        -0.1103
     18 C16         6.6074   -1.5560   -1.6552 C.ar      1 <0>        -0.1108
     19 C17         6.7187   -0.5303   -2.5752 C.ar      1 <0>        -0.1168
     20 C18         5.8839   -0.4960   -3.6764 C.ar      1 <0>        -0.1105
     21 C19         0.8716   -0.2569    1.2064 C.2       1 <0>         0.5260
     22 O2          1.9575   -0.7801    1.0713 O.2       1 <0>        -0.4965
     23 N2          0.4428    0.0985    2.4337 N.am      1 <0>        -0.6369
     24 C20         1.2517   -0.1364    3.5539 C.2       1 <0>         0.3044
     25 C21         2.5262   -0.7256    3.5420 C.2       1 <0>        -0.2584
     26 C22         2.9728   -0.7743    4.8175 C.2       1 <0>         0.1297
     27 N3          2.0211   -0.2377    5.6101 N.pl3     1 <0>        -0.4679
     28 H1          2.0701   -0.1414    6.5741 H         1 <0>         0.4388
     29 N4          0.9528    0.1610    4.7965 N.2       1 <0>        -0.3193
     30 C23         4.2976   -1.3295    5.2732 C.3       1 <0>        -0.0978
     31 C24         4.3437   -2.0149    6.6403 C.3       1 <0>        -0.1704
     32 C25         4.9851   -0.6386    6.4525 C.3       1 <0>        -0.1700
     33 H2          0.6695    2.0299   -0.2371 H         1 <0>         0.0653
     34 H3         -0.9027    1.6783   -0.9939 H         1 <0>         0.0761
     35 H4         -0.7839    1.8470    0.7740 H         1 <0>         0.0645
     36 H5         -0.9414   -0.5386    0.1163 H         1 <0>         0.1103
     37 H6          2.3855    0.8070   -0.9716 H         1 <0>         0.1207
     38 H7          3.5415    0.0171   -2.9956 H         1 <0>         0.1288
     39 H8          0.3160   -2.6804   -3.7737 H         1 <0>         0.1535
     40 H9         -0.8277   -1.8900   -1.7428 H         1 <0>         0.1252
     41 H10         4.0141   -0.4446   -5.4898 H         1 <0>         0.0982
     42 H11         5.0759   -2.0221   -6.8746 H         1 <0>         0.1001
     43 H12         4.9989   -3.3100   -5.6261 H         1 <0>         0.0897
     44 H13         2.8517   -2.3884   -7.5635 H         1 <0>         0.1121
     45 H14         3.1415   -4.0253   -6.8953 H         1 <0>         0.1096
     46 H15         4.0797   -3.2815   -3.0734 H         1 <0>         0.1161
     47 H16         5.5716   -3.3466   -1.1156 H         1 <0>         0.1223
     48 H17         7.2614   -1.5843   -0.7962 H         1 <0>         0.1225
     49 H18         7.4597    0.2428   -2.4350 H         1 <0>         0.1242
     50 H19         5.9734    0.3033   -4.3972 H         1 <0>         0.1244
     51 H20        -0.4256    0.5169    2.5417 H         1 <0>         0.4156
     52 H21         3.0558   -1.0774    2.6690 H         1 <0>         0.1727
     53 H22         4.9340   -1.7332    4.4857 H         1 <0>         0.1335
     54 H23         3.4158   -2.0642    7.2102 H         1 <0>         0.0947
     55 H24         5.0105   -2.8698    6.7525 H         1 <0>         0.1078
     56 H25         6.0739   -0.5881    6.4411 H         1 <0>         0.1077
     57 H26         4.4792    0.2175    6.8988 H         1 <0>         0.0948
@<TRIPOS>BOND
     1    1    2 1
     2    1   33 1
     3    1   34 1
     4    1   35 1
     5    2    3 1
     6    2   21 1
     7    2   36 1
     8    3    8 ar
     9    3    4 ar
    10    4    5 ar
    11    4   37 1
    12    5    6 ar
    13    5   38 1
    14    6    7 ar
    15    6    9 1
    16    7    8 ar
    17    7   39 1
    18    8   40 1
    19    9   13 am
    20    9   10 1
    21   10   11 1
    22   10   15 1
    23   10   41 1
    24   11   12 1
    25   11   42 1
    26   11   43 1
    27   12   13 1
    28   12   44 1
    29   12   45 1
    30   13   14 2
    31   15   20 ar
    32   15   16 ar
    33   16   17 ar
    34   16   46 1
    35   17   18 ar
    36   17   47 1
    37   18   19 ar
    38   18   48 1
    39   19   20 ar
    40   19   49 1
    41   20   50 1
    42   21   22 2
    43   21   23 am
    44   23   24 1
    45   23   51 1
    46   24   29 2
    47   24   25 1
    48   25   26 2
    49   25   52 1
    50   26   27 1
    51   26   30 1
    52   27   28 1
    53   27   29 1
    54   30   32 1
    55   30   31 1
    56   30   53 1
    57   31   32 1
    58   31   54 1
    59   31   55 1
    60   32   56 1
    61   32   57 1
@<TRIPOS>MOLECULE
CHEMBL192440
   57    61     0     0     0
SMALL
USER_CHARGES

@<TRIPOS>ATOM
      1 C1         -0.0058    1.4969    0.2979 C.3       1 <0>        -0.1449
      2 C2          0.0022   -0.0043    0.0023 C.3       1 <0>        -0.0577
      3 C3         -1.4117   -0.5258    0.0129 C.ar      1 <0>        -0.1002
      4 C4         -2.3407   -0.0189   -0.8770 C.ar      1 <0>        -0.0566
      5 C5         -3.6373   -0.4948   -0.8698 C.ar      1 <0>        -0.1493
      6 C6         -4.0074   -1.4838    0.0321 C.ar      1 <0>         0.1721
      7 C7         -3.0718   -1.9911    0.9243 C.ar      1 <0>        -0.1576
      8 C8         -1.7757   -1.5144    0.9088 C.ar      1 <0>        -0.0810
      9 N1         -5.3202   -1.9677    0.0423 N.am      1 <0>        -0.5527
     10 C9         -6.3439   -1.6055   -0.9450 C.3       1 <0>         0.1683
     11 C10        -7.4488   -2.6761   -0.8047 C.3       1 <0>        -0.1230
     12 C11        -7.2546   -3.1399    0.6575 C.3       1 <0>        -0.1541
     13 C12        -5.8042   -2.8285    0.9542 C.2       1 <0>         0.5160
     14 O1         -5.1710   -3.2868    1.8816 O.2       1 <0>        -0.5069
     15 C13        -5.7620   -1.6358   -2.3348 C.ar      1 <0>        -0.1019
     16 C14        -4.8847   -2.6415   -2.6950 C.ar      1 <0>        -0.0937
     17 C15        -4.3508   -2.6693   -3.9698 C.ar      1 <0>        -0.1101
     18 C16        -4.6946   -1.6915   -4.8845 C.ar      1 <0>        -0.1099
     19 C17        -5.5726   -0.6863   -4.5246 C.ar      1 <0>        -0.1167
     20 C18        -6.1098   -0.6610   -3.2511 C.ar      1 <0>        -0.1107
     21 C19         0.6167   -0.2463   -1.3522 C.2       1 <0>         0.5237
     22 O2         -0.0298   -0.7889   -2.2233 O.2       1 <0>        -0.4859
     23 N2          1.8847    0.1403   -1.5958 N.am      1 <0>        -0.6525
     24 C20         2.4534   -0.0837   -2.8494 C.2       1 <0>         0.3079
     25 C21         1.8470   -0.6783   -3.9130 C.2       1 <0>        -0.2699
     26 C22         2.7626   -0.7036   -4.9685 C.2       1 <0>         0.1215
     27 N3          3.8753   -0.1483   -4.5613 N.2       1 <0>        -0.2799
     28 H1          4.3700    0.6989   -2.6800 H         1 <0>         0.4363
     29 N4          3.7059    0.2558   -3.2309 N.pl3     1 <0>        -0.4915
     30 C23         2.5117   -1.2735   -6.3408 C.3       1 <0>        -0.0845
     31 C24         1.3121   -2.2082   -6.5091 C.3       1 <0>        -0.1629
     32 C25         2.7330   -2.7751   -6.5335 C.3       1 <0>        -0.1635
     33 H2          1.0168    1.8741    0.2902 H         1 <0>         0.0623
     34 H3         -0.5896    2.0141   -0.4635 H         1 <0>         0.0663
     35 H4         -0.4503    1.6719    1.2777 H         1 <0>         0.0775
     36 H5          0.5859   -0.5214    0.7638 H         1 <0>         0.1103
     37 H6         -2.0523    0.7502   -1.5782 H         1 <0>         0.1206
     38 H7         -4.3626   -0.0980   -1.5647 H         1 <0>         0.1296
     39 H8         -3.3567   -2.7600    1.6272 H         1 <0>         0.1539
     40 H9         -1.0466   -1.9114    1.5996 H         1 <0>         0.1250
     41 H10        -6.7467   -0.6168   -0.7254 H         1 <0>         0.0982
     42 H11        -8.4367   -2.2380   -0.9471 H         1 <0>         0.1004
     43 H12        -7.2849   -3.4993   -1.5001 H         1 <0>         0.0899
     44 H13        -7.9125   -2.5832    1.3249 H         1 <0>         0.1123
     45 H14        -7.4377   -4.2108    0.7456 H         1 <0>         0.1099
     46 H15        -4.6161   -3.4054   -1.9804 H         1 <0>         0.1158
     47 H16        -3.6649   -3.4546   -4.2510 H         1 <0>         0.1227
     48 H17        -4.2770   -1.7128   -5.8803 H         1 <0>         0.1233
     49 H18        -5.8409    0.0778   -5.2391 H         1 <0>         0.1244
     50 H19        -6.7986    0.1223   -2.9711 H         1 <0>         0.1243
     51 H20         2.4017    0.5742   -0.8991 H         1 <0>         0.4118
     52 H21         0.8379   -1.0625   -3.9369 H         1 <0>         0.1737
     53 H22         2.7596   -0.6171   -7.1750 H         1 <0>         0.1212
     54 H23         0.7044   -2.4109   -5.6272 H         1 <0>         0.1012
     55 H24         0.7704   -2.1667   -7.4541 H         1 <0>         0.1016
     56 H25         3.1261   -3.1067   -7.4946 H         1 <0>         0.1011
     57 H26         3.0601   -3.3508   -5.6677 H         1 <0>         0.0949
@<TRIPOS>BOND
     1    1    2 1
     2    1   33 1
     3    1   34 1
     4    1   35 1
     5    2    3 1
     6    2   21 1
     7    2   36 1
     8    3    8 ar
     9    3    4 ar
    10    4    5 ar
    11    4   37 1
    12    5    6 ar
    13    5   38 1
    14    6    7 ar
    15    6    9 1
    16    7    8 ar
    17    7   39 1
    18    8   40 1
    19    9   13 am
    20    9   10 1
    21   10   11 1
    22   10   15 1
    23   10   41 1
    24   11   12 1
    25   11   42 1
    26   11   43 1
    27   12   13 1
    28   12   44 1
    29   12   45 1
    30   13   14 2
    31   15   20 ar
    32   15   16 ar
    33   16   17 ar
    34   16   46 1
    35   17   18 ar
    36   17   47 1
    37   18   19 ar
    38   18   48 1
    39   19   20 ar
    40   19   49 1
    41   20   50 1
    42   21   22 2
    43   21   23 am
    44   23   51 1
    45   23   24 1
    46   24   25 2
    47   24   29 1
    48   25   26 1
    49   25   52 1
    50   26   27 2
    51   26   30 1
    52   27   29 1
    53   28   29 1
    54   30   32 1
    55   30   31 1
    56   30   53 1
    57   31   32 1
    58   31   54 1
    59   31   55 1
    60   32   56 1
    61   32   57 1
@<TRIPOS>MOLECULE
CHEMBL192440
   57    61     0     0     0
SMALL
USER_CHARGES

@<TRIPOS>ATOM
      1 C1          0.0147    1.5257    0.0294 C.3       1 <0>        -0.1454
      2 C2          0.0021   -0.0040    0.0020 C.3       1 <0>        -0.0590
      3 C3          0.7075   -0.4901   -1.2379 C.ar      1 <0>        -0.0970
      4 C4          2.0356   -0.1669   -1.4475 C.ar      1 <0>        -0.0563
      5 C5          2.6849   -0.6107   -2.5828 C.ar      1 <0>        -0.1555
      6 C6          2.0027   -1.3827   -3.5141 C.ar      1 <0>         0.1702
      7 C7          0.6691   -1.7059   -3.3003 C.ar      1 <0>        -0.1522
      8 C8          0.0269   -1.2630   -2.1606 C.ar      1 <0>        -0.0821
      9 N1          2.6575   -1.8336   -4.6655 N.am      1 <0>        -0.5530
     10 C9          2.0715   -2.7585   -5.6429 C.3       1 <0>         0.1682
     11 C10         3.2628   -3.2986   -6.4649 C.3       1 <0>        -0.1227
     12 C11         4.2951   -2.1577   -6.3109 C.3       1 <0>        -0.1541
     13 C12         3.9018   -1.4708   -5.0216 C.2       1 <0>         0.5155
     14 O1          4.6076   -0.7062   -4.3985 O.2       1 <0>        -0.5056
     15 C13         1.3706   -3.8895   -4.9355 C.ar      1 <0>        -0.1003
     16 C14         1.9318   -4.4502   -3.8034 C.ar      1 <0>        -0.0931
     17 C15         1.2889   -5.4877   -3.1545 C.ar      1 <0>        -0.1132
     18 C16         0.0845   -5.9643   -3.6374 C.ar      1 <0>        -0.1127
     19 C17        -0.4772   -5.4030   -4.7689 C.ar      1 <0>        -0.1172
     20 C18         0.1636   -4.3626   -5.4154 C.ar      1 <0>        -0.1101
     21 C19         0.7093   -0.5342    1.2227 C.2       1 <0>         0.5257
     22 O2          1.6896   -1.2374    1.0980 O.2       1 <0>        -0.4968
     23 N2          0.2524   -0.2268    2.4528 N.am      1 <0>        -0.6368
     24 C20         0.9101   -0.7198    3.5881 C.2       1 <0>         0.3043
     25 C21         2.0530   -1.5354    3.5900 C.2       1 <0>        -0.2587
     26 C22         2.3766   -1.7932    4.8775 C.2       1 <0>         0.1302
     27 N3          1.4761   -1.1671    5.6641 N.pl3     1 <0>        -0.4678
     28 H1          1.4620   -1.1773    6.6339 H         1 <0>         0.4388
     29 N4          0.5687   -0.4953    4.8350 N.2       1 <0>        -0.3194
     30 C23         3.5365   -2.6313    5.3501 C.3       1 <0>        -0.0982
     31 C24         3.3446   -3.4444    6.6319 C.3       1 <0>        -0.1704
     32 C25         4.2384   -2.2026    6.6403 C.3       1 <0>        -0.1699
     33 H2          1.0453    1.8805    0.0351 H         1 <0>         0.0662
     34 H3         -0.4968    1.9091   -0.8534 H         1 <0>         0.0760
     35 H4         -0.4955    1.8772    0.9262 H         1 <0>         0.0646
     36 H5         -1.0285   -0.3589   -0.0036 H         1 <0>         0.1097
     37 H6          2.5655    0.4335   -0.7229 H         1 <0>         0.1221
     38 H7          3.7219   -0.3574   -2.7464 H         1 <0>         0.1527
     39 H8          0.1357   -2.3058   -4.0228 H         1 <0>         0.1297
     40 H9         -1.0091   -1.5174   -1.9918 H         1 <0>         0.1236
     41 H10         1.3743   -2.2291   -6.2923 H         1 <0>         0.0982
     42 H11         3.6416   -4.2275   -6.0387 H         1 <0>         0.0897
     43 H12         2.9854   -3.4353   -7.5101 H         1 <0>         0.1001
     44 H13         5.3041   -2.5635   -6.2379 H         1 <0>         0.1103
     45 H14         4.2223   -1.4620   -7.1469 H         1 <0>         0.1114
     46 H15         2.8728   -4.0779   -3.4261 H         1 <0>         0.1173
     47 H16         1.7277   -5.9262   -2.2704 H         1 <0>         0.1227
     48 H17        -0.4175   -6.7753   -3.1308 H         1 <0>         0.1228
     49 H18        -1.4180   -5.7755   -5.1464 H         1 <0>         0.1247
     50 H19        -0.2770   -3.9217   -6.2973 H         1 <0>         0.1251
     51 H20        -0.5316    0.3356    2.5525 H         1 <0>         0.4156
     52 H21         2.5802   -1.8933    2.7180 H         1 <0>         0.1727
     53 H22         4.1518   -3.0685    4.5638 H         1 <0>         0.1339
     54 H23         2.3794   -3.3732    7.1333 H         1 <0>         0.0946
     55 H24         3.8336   -4.4169    6.6890 H         1 <0>         0.1078
     56 H25         5.3154   -2.3582    6.7029 H         1 <0>         0.1079
     57 H26         3.8612   -1.3145    7.1473 H         1 <0>         0.0949
@<TRIPOS>BOND
     1    1    2 1
     2    1   33 1
     3    1   34 1
     4    1   35 1
     5    2    3 1
     6    2   21 1
     7    2   36 1
     8    3    8 ar
     9    3    4 ar
    10    4    5 ar
    11    4   37 1
    12    5    6 ar
    13    5   38 1
    14    6    7 ar
    15    6    9 1
    16    7    8 ar
    17    7   39 1
    18    8   40 1
    19    9   13 am
    20    9   10 1
    21   10   11 1
    22   10   15 1
    23   10   41 1
    24   11   12 1
    25   11   42 1
    26   11   43 1
    27   12   13 1
    28   12   44 1
    29   12   45 1
    30   13   14 2
    31   15   20 ar
    32   15   16 ar
    33   16   17 ar
    34   16   46 1
    35   17   18 ar
    36   17   47 1
    37   18   19 ar
    38   18   48 1
    39   19   20 ar
    40   19   49 1
    41   20   50 1
    42   21   22 2
    43   21   23 am
    44   23   24 1
    45   23   51 1
    46   24   29 2
    47   24   25 1
    48   25   26 2
    49   25   52 1
    50   26   27 1
    51   26   30 1
    52   27   28 1
    53   27   29 1
    54   30   32 1
    55   30   31 1
    56   30   53 1
    57   31   32 1
    58   31   54 1
    59   31   55 1
    60   32   56 1
    61   32   57 1
@<TRIPOS>MOLECULE
CHEMBL192440
   57    61     0     0     0
SMALL
USER_CHARGES

@<TRIPOS>ATOM
      1 C1         -0.0189    1.5255   -0.0280 C.3       1 <0>        -0.1455
      2 C2          0.0021   -0.0040    0.0020 C.3       1 <0>        -0.0569
      3 C3         -1.4117   -0.5257    0.0127 C.ar      1 <0>        -0.1002
      4 C4         -2.2651   -0.2275   -1.0338 C.ar      1 <0>        -0.0562
      5 C5         -3.5614   -0.7040   -1.0270 C.ar      1 <0>        -0.1552
      6 C6         -4.0074   -1.4838    0.0321 C.ar      1 <0>         0.1723
      7 C7         -3.1478   -1.7818    1.0813 C.ar      1 <0>        -0.1522
      8 C8         -1.8512   -1.3062    1.0662 C.ar      1 <0>        -0.0814
      9 N1         -5.3202   -1.9677    0.0423 N.am      1 <0>        -0.5534
     10 C9         -5.8504   -2.9027    1.0416 C.3       1 <0>         0.1683
     11 C10        -7.1438   -3.4776    0.4228 C.3       1 <0>        -0.1227
     12 C11        -7.5551   -2.3501   -0.5522 C.3       1 <0>        -0.1540
     13 C12        -6.2595   -1.6316   -0.8587 C.2       1 <0>         0.5157
     14 O1         -6.0918   -0.8657   -1.7841 O.2       1 <0>        -0.5050
     15 C13        -4.8593   -4.0083    1.2989 C.ar      1 <0>        -0.1006
     16 C14        -4.1455   -4.5549    0.2488 C.ar      1 <0>        -0.0934
     17 C15        -3.2363   -5.5691    0.4848 C.ar      1 <0>        -0.1131
     18 C16        -3.0406   -6.0364    1.7710 C.ar      1 <0>        -0.1126
     19 C17        -3.7537   -5.4892    2.8212 C.ar      1 <0>        -0.1172
     20 C18        -4.6597   -4.4721    2.5858 C.ar      1 <0>        -0.1102
     21 C19         0.7188   -0.5206   -1.2189 C.2       1 <0>         0.5234
     22 O2          0.1387   -1.2414   -2.0031 O.2       1 <0>        -0.4863
     23 N2          2.0045   -0.1816   -1.4393 N.am      1 <0>        -0.6523
     24 C20         2.6679   -0.6597   -2.5692 C.2       1 <0>         0.3075
     25 C21         2.1424   -1.4716   -3.5269 C.2       1 <0>        -0.2699
     26 C22         3.1375   -1.7102   -4.4788 C.2       1 <0>         0.1218
     27 N3          4.2186   -1.0703   -4.1129 N.2       1 <0>        -0.2798
     28 H1          4.5707    0.1601   -2.4206 H         1 <0>         0.4362
     29 N4          3.9486   -0.3960   -2.9153 N.pl3     1 <0>        -0.4915
     30 C23         2.9906   -2.5596   -5.7149 C.3       1 <0>        -0.0847
     31 C24         1.8016   -3.5206   -5.7745 C.3       1 <0>        -0.1632
     32 C25         3.2162   -4.0657   -5.5680 C.3       1 <0>        -0.1633
     33 H2          1.0037    1.9028   -0.0357 H         1 <0>         0.0624
     34 H3         -0.5379    1.8643   -0.9246 H         1 <0>         0.0671
     35 H4         -0.5373    1.8991    0.8551 H         1 <0>         0.0773
     36 H5          0.5211   -0.3428    0.8986 H         1 <0>         0.1097
     37 H6         -1.9176    0.3790   -1.8571 H         1 <0>         0.1219
     38 H7         -4.2276   -0.4702   -1.8442 H         1 <0>         0.1534
     39 H8         -3.4917   -2.3876    1.9066 H         1 <0>         0.1302
     40 H9         -1.1809   -1.5410    1.8798 H         1 <0>         0.1234
     41 H10        -6.0775   -2.3756    1.9682 H         1 <0>         0.0983
     42 H11        -6.9408   -4.4036   -0.1151 H         1 <0>         0.0900
     43 H12        -7.9068   -3.6308    1.1860 H         1 <0>         0.1004
     44 H13        -7.9859   -2.7700   -1.4612 H         1 <0>         0.1107
     45 H14        -8.2599   -1.6701   -0.0737 H         1 <0>         0.1116
     46 H15        -4.2984   -4.1898   -0.7560 H         1 <0>         0.1174
     47 H16        -2.6792   -5.9966   -0.3357 H         1 <0>         0.1230
     48 H17        -2.3308   -6.8292    1.9553 H         1 <0>         0.1229
     49 H18        -3.6010   -5.8545    3.8260 H         1 <0>         0.1248
     50 H19        -5.2142   -4.0420    3.4068 H         1 <0>         0.1251
     51 H20         2.4685    0.3948   -0.8121 H         1 <0>         0.4117
     52 H21         1.1357   -1.8622   -3.5474 H         1 <0>         0.1737
     53 H22         3.3072   -2.0918   -6.6471 H         1 <0>         0.1214
     54 H23         1.1256   -3.5385   -4.9196 H         1 <0>         0.1013
     55 H24         1.3356   -3.6852   -6.7460 H         1 <0>         0.1020
     56 H25         3.6809   -4.5889   -6.4037 H         1 <0>         0.1011
     57 H26         3.4708   -4.4422   -4.5773 H         1 <0>         0.0947
@<TRIPOS>BOND
     1    1    2 1
     2    1   33 1
     3    1   34 1
     4    1   35 1
     5    2    3 1
     6    2   21 1
     7    2   36 1
     8    3    8 ar
     9    3    4 ar
    10    4    5 ar
    11    4   37 1
    12    5    6 ar
    13    5   38 1
    14    6    7 ar
    15    6    9 1
    16    7    8 ar
    17    7   39 1
    18    8   40 1
    19    9   13 am
    20    9   10 1
    21   10   11 1
    22   10   15 1
    23   10   41 1
    24   11   12 1
    25   11   42 1
    26   11   43 1
    27   12   13 1
    28   12   44 1
    29   12   45 1
    30   13   14 2
    31   15   20 ar
    32   15   16 ar
    33   16   17 ar
    34   16   46 1
    35   17   18 ar
    36   17   47 1
    37   18   19 ar
    38   18   48 1
    39   19   20 ar
    40   19   49 1
    41   20   50 1
    42   21   22 2
    43   21   23 am
    44   23   51 1
    45   23   24 1
    46   24   25 2
    47   24   29 1
    48   25   26 1
    49   25   52 1
    50   26   27 2
    51   26   30 1
    52   27   29 1
    53   28   29 1
    54   30   32 1
    55   30   31 1
    56   30   53 1
    57   31   32 1
    58   31   54 1
    59   31   55 1
    60   32   56 1
    61   32   57 1
@<TRIPOS>MOLECULE
CHEMBL72077
   65    71     0     0     0
SMALL
USER_CHARGES

@<TRIPOS>ATOM
      1 C1         -0.0178    1.4613    0.0101 C.3       1 <0>         0.0625
      2 N1          0.0021   -0.0041    0.0020 N.pl3     1 <0>        -0.4465
      3 C2         -0.0218   -0.7478   -1.1468 C.2       1 <0>         0.0429
      4 C3         -0.1157   -2.0491   -0.8379 C.2       1 <0>        -0.1870
      5 C4         -0.1502   -2.1329    0.6212 C.ar      1 <0>        -0.1145
      6 C5          0.0236   -0.8228    1.0987 C.ar      1 <0>         0.0990
      7 C6          0.2017   -0.6463    2.4844 C.ar      1 <0>         0.0557
      8 C7         -0.2656   -1.6699    3.3593 C.ar      1 <0>        -0.0163
      9 C8         -0.4340   -2.9690    2.8515 C.ar      1 <0>        -0.1529
     10 C9         -0.3463   -3.1990    1.5163 C.ar      1 <0>        -0.0433
     11 C10        -0.5440   -1.3620    4.7084 C.ar      1 <0>         0.1858
     12 C11        -0.0298   -0.1628    5.2342 C.ar      1 <0>        -0.0564
     13 C12        -0.4096   -0.1228    6.6566 C.ar      1 <0>        -0.1324
     14 C13        -0.1752    0.7932    7.6807 C.ar      1 <0>        -0.0128
     15 C14        -0.6634    0.5387    8.9433 C.ar      1 <0>        -0.2278
     16 C15        -1.3859   -0.6247    9.1954 C.ar      1 <0>         0.1673
     17 C16        -1.6317   -1.5332    8.1787 C.ar      1 <0>        -0.1752
     18 C17        -1.1491   -1.2866    6.8993 C.ar      1 <0>         0.1742
     19 N2         -1.2496   -1.9881    5.7073 N.pl3     1 <0>        -0.4764
     20 C18        -2.0398   -3.2156    5.5713 C.3       1 <0>         0.1053
     21 C19        -1.1507   -4.4284    5.8538 C.3       1 <0>        -0.1415
     22 C20        -1.9753   -5.7093    5.7120 C.3       1 <0>         0.0581
     23 N3         -1.1217   -6.8737    5.9832 N.3       1 <0>        -0.5359
     24 C21        -0.0838   -7.0177    4.9519 C.3       1 <0>         0.0134
     25 C22         0.8172   -8.2041    5.3046 C.3       1 <0>         0.0625
     26 O1          0.0167   -9.3820    5.4353 O.3       1 <0>        -0.3846
     27 C23        -1.0040   -9.2768    6.4315 C.3       1 <0>         0.0625
     28 C24        -1.9235   -8.1013    6.0903 C.3       1 <0>         0.0179
     29 O2         -1.8409   -0.8694   10.4508 O.3       1 <0>        -0.3135
     30 C25        -1.5406    0.1057   11.4513 C.3       1 <0>         0.0263
     31 C26         0.6913    0.7267    4.4236 C.ar      1 <0>        -0.0753
     32 C27         0.8613    0.4580    3.0563 C.ar      1 <0>        -0.1703
     33 C28         1.8402    1.4532    2.5917 C.2       1 <0>         0.5827
     34 O3          2.4288    1.4374    1.5291 O.2       1 <0>        -0.4609
     35 N4          2.0156    2.3762    3.5599 N.am      1 <0>        -0.6841
     36 C29         1.3563    2.0220    4.6756 C.2       1 <0>         0.5793
     37 O4          1.3097    2.6515    5.7141 O.2       1 <0>        -0.4574
     38 H1          1.0048    1.8386    0.0023 H         1 <0>         0.0879
     39 H2         -0.5450    1.8224   -0.8730 H         1 <0>         0.0889
     40 H3         -0.5280    1.8128    0.9069 H         1 <0>         0.0764
     41 H4          0.0227   -0.3458   -2.1469 H         1 <0>         0.1740
     42 H5         -0.1506   -2.8744   -1.5332 H         1 <0>         0.1523
     43 H6         -0.6107   -3.8094    3.5023 H         1 <0>         0.1312
     44 H7         -0.4311   -4.2062    1.1422 H         1 <0>         0.1291
     45 H8          0.3820    1.6976    7.4953 H         1 <0>         0.1452
     46 H9         -0.4778    1.2431    9.7409 H         1 <0>         0.1358
     47 H10        -2.1864   -2.4318    8.3996 H         1 <0>         0.1352
     48 H11        -2.8655   -3.1969    6.2827 H         1 <0>         0.0987
     49 H12        -2.4349   -3.2830    4.5577 H         1 <0>         0.0952
     50 H13        -0.3250   -4.4471    5.1425 H         1 <0>         0.0748
     51 H14        -0.7556   -4.3610    6.8674 H         1 <0>         0.0849
     52 H15        -2.8010   -5.6906    6.4233 H         1 <0>         0.0818
     53 H16        -2.3704   -5.7767    4.6983 H         1 <0>         0.0410
     54 H17        -0.5540   -7.1928    3.9843 H         1 <0>         0.0455
     55 H18         0.5139   -6.1073    4.9075 H         1 <0>         0.0879
     56 H19         1.5530   -8.3501    4.5138 H         1 <0>         0.0993
     57 H20         1.3287   -8.0054    6.2464 H         1 <0>         0.0604
     58 H21        -1.5854  -10.1985    6.4557 H         1 <0>         0.0994
     59 H22        -0.5455   -9.1093    7.4061 H         1 <0>         0.0607
     60 H23        -2.6687   -7.9818    6.8768 H         1 <0>         0.0878
     61 H24        -2.4231   -8.2937    5.1408 H         1 <0>         0.0448
     62 H25        -1.9608   -0.2116   12.4057 H         1 <0>         0.1026
     63 H26        -0.4595    0.2079   11.5462 H         1 <0>         0.0590
     64 H27        -1.9724    1.0648   11.1651 H         1 <0>         0.0589
     65 H28         2.5465    3.1820    3.4659 H         1 <0>         0.4309
@<TRIPOS>BOND
     1    1    2 1
     2    1   38 1
     3    1   39 1
     4    1   40 1
     5    2    6 1
     6    2    3 1
     7    3    4 2
     8    3   41 1
     9    4    5 1
    10    4   42 1
    11    5   10 ar
    12    5    6 ar
    13    6    7 ar
    14    7   32 ar
    15    7    8 ar
    16    8    9 ar
    17    8   11 ar
    18    9   10 ar
    19    9   43 1
    20   10   44 1
    21   11   19 1
    22   11   12 ar
    23   12   13 1
    24   12   31 ar
    25   13   18 ar
    26   13   14 ar
    27   14   15 ar
    28   14   45 1
    29   15   16 ar
    30   15   46 1
    31   16   17 ar
    32   16   29 1
    33   17   18 ar
    34   17   47 1
    35   18   19 1
    36   19   20 1
    37   20   21 1
    38   20   48 1
    39   20   49 1
    40   21   22 1
    41   21   50 1
    42   21   51 1
    43   22   23 1
    44   22   52 1
    45   22   53 1
    46   23   28 1
    47   23   24 1
    48   24   25 1
    49   24   54 1
    50   24   55 1
    51   25   26 1
    52   25   56 1
    53   25   57 1
    54   26   27 1
    55   27   28 1
    56   27   58 1
    57   27   59 1
    58   28   60 1
    59   28   61 1
    60   29   30 1
    61   30   62 1
    62   30   63 1
    63   30   64 1
    64   31   36 1
    65   31   32 ar
    66   32   33 1
    67   33   34 2
    68   33   35 am
    69   35   36 am
    70   35   65 1
    71   36   37 2
@<TRIPOS>MOLECULE
CHEMBL72077
   66    72     0     0     0
SMALL
USER_CHARGES

@<TRIPOS>ATOM
      1 C1         -0.0178    1.4613    0.0101 C.3       1 <0>         0.0588
      2 N1          0.0021   -0.0041    0.0020 N.pl3     1 <0>        -0.4428
      3 C2         -0.0218   -0.7478   -1.1468 C.2       1 <0>         0.0488
      4 C3         -0.1157   -2.0491   -0.8379 C.2       1 <0>        -0.1854
      5 C4         -0.1502   -2.1329    0.6212 C.ar      1 <0>        -0.1207
      6 C5          0.0236   -0.8228    1.0987 C.ar      1 <0>         0.1039
      7 C6          0.2017   -0.6463    2.4844 C.ar      1 <0>         0.0553
      8 C7         -0.2656   -1.6699    3.3593 C.ar      1 <0>        -0.0147
      9 C8         -0.4340   -2.9690    2.8515 C.ar      1 <0>        -0.1678
     10 C9         -0.3463   -3.1990    1.5163 C.ar      1 <0>        -0.0332
     11 C10        -0.5440   -1.3620    4.7084 C.ar      1 <0>         0.1725
     12 C11        -0.0298   -0.1628    5.2342 C.ar      1 <0>        -0.0474
     13 C12        -0.4096   -0.1228    6.6566 C.ar      1 <0>        -0.1306
     14 C13        -0.1752    0.7932    7.6807 C.ar      1 <0>        -0.0080
     15 C14        -0.6634    0.5387    8.9433 C.ar      1 <0>        -0.2241
     16 C15        -1.3859   -0.6247    9.1954 C.ar      1 <0>         0.1731
     17 C16        -1.6317   -1.5332    8.1787 C.ar      1 <0>        -0.1838
     18 C17        -1.1491   -1.2866    6.8993 C.ar      1 <0>         0.1685
     19 N2         -1.2496   -1.9881    5.7073 N.pl3     1 <0>        -0.4841
     20 C18        -2.0398   -3.2156    5.5713 C.3       1 <0>         0.1146
     21 C19        -1.1507   -4.4284    5.8538 C.3       1 <0>        -0.1816
     22 C20        -1.9753   -5.7093    5.7120 C.3       1 <0>        -0.0069
     23 N3         -1.1217   -6.8737    5.9832 N.4       1 <0>        -0.3851
     24 C21        -0.0790   -6.9676    4.9521 C.3       1 <0>        -0.0510
     25 C22         0.8091   -8.1814    5.2370 C.3       1 <0>         0.0366
     26 O1         -0.0006   -9.3598    5.2742 O.3       1 <0>        -0.3554
     27 C23        -1.0470   -9.3066    6.2479 C.3       1 <0>         0.0353
     28 C24        -1.9386   -8.0950    5.9649 C.3       1 <0>        -0.0433
     29 O2         -1.8409   -0.8694   10.4508 O.3       1 <0>        -0.3140
     30 C25        -1.5406    0.1057   11.4513 C.3       1 <0>         0.0241
     31 C26         0.6913    0.7267    4.4236 C.ar      1 <0>        -0.0769
     32 C27         0.8613    0.4580    3.0563 C.ar      1 <0>        -0.1581
     33 C28         1.8402    1.4532    2.5917 C.2       1 <0>         0.5796
     34 O3          2.4288    1.4374    1.5291 O.2       1 <0>        -0.4540
     35 N4          2.0156    2.3762    3.5599 N.am      1 <0>        -0.6821
     36 C29         1.3563    2.0220    4.6756 C.2       1 <0>         0.5774
     37 O4          1.3097    2.6515    5.7141 O.2       1 <0>        -0.4526
     38 H1          1.0048    1.8386    0.0023 H         1 <0>         0.0909
     39 H2         -0.5450    1.8224   -0.8730 H         1 <0>         0.0935
     40 H3         -0.5280    1.8128    0.9069 H         1 <0>         0.0779
     41 H4          0.0227   -0.3458   -2.1469 H         1 <0>         0.1777
     42 H5         -0.1506   -2.8744   -1.5332 H         1 <0>         0.1547
     43 H6         -0.6107   -3.8094    3.5023 H         1 <0>         0.1196
     44 H7         -0.4311   -4.2062    1.1422 H         1 <0>         0.1284
     45 H8          0.3820    1.6976    7.4953 H         1 <0>         0.1484
     46 H9         -0.4778    1.2431    9.7409 H         1 <0>         0.1397
     47 H10        -2.1864   -2.4318    8.3996 H         1 <0>         0.1312
     48 H11        -2.8655   -3.1969    6.2827 H         1 <0>         0.1067
     49 H12        -2.4349   -3.2830    4.5577 H         1 <0>         0.1056
     50 H13        -0.3250   -4.4471    5.1425 H         1 <0>         0.0980
     51 H14        -0.7556   -4.3610    6.8674 H         1 <0>         0.1002
     52 H15        -2.8010   -5.6906    6.4233 H         1 <0>         0.1392
     53 H16        -2.3704   -5.7767    4.6983 H         1 <0>         0.1369
     54 H17        -0.5448   -7.0797    3.9730 H         1 <0>         0.1421
     55 H18         0.5276   -6.0621    4.9649 H         1 <0>         0.1424
     56 H19         1.5568   -8.2781    4.4498 H         1 <0>         0.1430
     57 H20         1.3064   -8.0509    6.1982 H         1 <0>         0.0814
     58 H21        -1.6426  -10.2178    6.1923 H         1 <0>         0.1430
     59 H22        -0.6132   -9.2147    7.2437 H         1 <0>         0.0815
     60 H23        -2.7123   -8.0264    6.7295 H         1 <0>         0.1440
     61 H24        -2.4037   -8.2067    4.9854 H         1 <0>         0.1406
     62 H25        -1.9608   -0.2116   12.4057 H         1 <0>         0.1062
     63 H26        -0.4595    0.2079   11.5462 H         1 <0>         0.0614
     64 H27        -1.9724    1.0648   11.1651 H         1 <0>         0.0623
     65 H28         2.5465    3.1820    3.4659 H         1 <0>         0.4345
     66 H29        -0.6904   -6.7709    6.8896 H         1 <0>         0.4242
@<TRIPOS>BOND
     1    1    2 1
     2    1   38 1
     3    1   39 1
     4    1   40 1
     5    2    6 1
     6    2    3 1
     7    3    4 2
     8    3   41 1
     9    4    5 1
    10    4   42 1
    11    5   10 ar
    12    5    6 ar
    13    6    7 ar
    14    7   32 ar
    15    7    8 ar
    16    8    9 ar
    17    8   11 ar
    18    9   10 ar
    19    9   43 1
    20   10   44 1
    21   11   19 1
    22   11   12 ar
    23   12   13 1
    24   12   31 ar
    25   13   18 ar
    26   13   14 ar
    27   14   15 ar
    28   14   45 1
    29   15   16 ar
    30   15   46 1
    31   16   17 ar
    32   16   29 1
    33   17   18 ar
    34   17   47 1
    35   18   19 1
    36   19   20 1
    37   20   21 1
    38   20   48 1
    39   20   49 1
    40   21   22 1
    41   21   50 1
    42   21   51 1
    43   22   23 1
    44   22   52 1
    45   22   53 1
    46   23   28 1
    47   23   24 1
    48   23   66 1
    49   24   25 1
    50   24   54 1
    51   24   55 1
    52   25   26 1
    53   25   56 1
    54   25   57 1
    55   26   27 1
    56   27   28 1
    57   27   58 1
    58   27   59 1
    59   28   60 1
    60   28   61 1
    61   29   30 1
    62   30   62 1
    63   30   63 1
    64   30   64 1
    65   31   36 1
    66   31   32 ar
    67   32   33 1
    68   33   34 2
    69   33   35 am
    70   35   36 am
    71   35   65 1
    72   36   37 2
@<TRIPOS>MOLECULE
CHEMBL355631
   45    48     0     0     0
SMALL
USER_CHARGES

@<TRIPOS>ATOM
      1 C1         -0.9108    1.1980   -1.3280 C.3       1 <0>         0.0293
      2 O1         -0.6625   -0.1618   -0.9658 O.3       1 <0>        -0.3063
      3 C2          0.5168   -0.7006   -1.3665 C.2       1 <0>         0.1197
      4 C3          1.5235   -0.0558   -2.0972 C.2       1 <0>        -0.2804
      5 C4          2.5326   -0.9378   -2.2910 C.2       1 <0>         0.0956
      6 N1          2.2086   -2.1222   -1.7116 N.pl3     1 <0>        -0.5069
      7 H1          2.7609   -2.9195   -1.7065 H         1 <0>         0.4302
      8 C5          0.9611   -2.0002   -1.1245 C.2       1 <0>        -0.0584
      9 C6          0.2717   -2.9979   -0.4200 C.2       1 <0>         0.1161
     10 C7          0.3845   -4.3254   -0.8082 C.2       1 <0>        -0.2321
     11 C8         -0.1448   -5.5078   -0.1018 C.ar      1 <0>        -0.0310
     12 C9          0.2177   -6.6191   -0.8745 C.ar      1 <0>         0.1326
     13 C10        -0.1490   -7.8907   -0.4532 C.ar      1 <0>        -0.0728
     14 C11        -0.8649   -8.0601    0.7172 C.ar      1 <0>        -0.1194
     15 C12        -1.2289   -6.9708    1.4881 C.ar      1 <0>         0.1220
     16 C13        -0.8715   -5.6815    1.0860 C.ar      1 <0>        -0.0221
     17 C14        -1.2437   -4.5481    1.8781 C.1       1 <0>         0.0086
     18 C15        -1.5488   -3.6189    2.5275 C.1       1 <0>        -0.2599
     19 C16        -1.9313   -2.4538    3.3418 C.3       1 <0>         0.1708
     20 H2         -2.4868   -2.7819    4.2204 H         1 <0>         0.1621
     21 C17        -2.7964   -1.4889    2.5039 C.3       1 <0>        -0.1353
     22 C18        -2.3066   -0.0908    2.9645 C.3       1 <0>        -0.1406
     23 C19        -0.7960   -0.3475    3.1915 C.3       1 <0>        -0.0102
     24 N2         -0.7252   -1.7149    3.7580 N.4       1 <0>        -0.5169
     25 F1         -1.9285   -7.1536    2.6293 F         1 <0>        -0.1239
     26 N3          0.9228   -6.1666   -1.9843 N.am      1 <0>        -0.6480
     27 C20         1.0287   -4.8272   -1.9719 C.2       1 <0>         0.5607
     28 O2          1.5888   -4.1527   -2.8186 O.2       1 <0>        -0.5089
     29 H3         -0.1371    1.8352   -0.8997 H         1 <0>         0.0586
     30 H4         -0.8995    1.2926   -2.4139 H         1 <0>         0.0611
     31 H5         -1.8852    1.5034   -0.9468 H         1 <0>         0.1025
     32 H6          1.4990    0.9664   -2.4452 H         1 <0>         0.1517
     33 H7          3.4498   -0.7319   -2.8227 H         1 <0>         0.1808
     34 H8         -0.3470   -2.7330    0.4247 H         1 <0>         0.1389
     35 H9          0.1264   -8.7521   -1.0436 H         1 <0>         0.1514
     36 H10        -1.1436   -9.0546    1.0331 H         1 <0>         0.1590
     37 H11        -2.6108   -1.6308    1.4392 H         1 <0>         0.1063
     38 H12        -3.8537   -1.6216    2.7329 H         1 <0>         0.1213
     39 H13        -2.4632    0.6543    2.1845 H         1 <0>         0.1213
     40 H14        -2.7955    0.2082    3.8918 H         1 <0>         0.1029
     41 H15        -0.2565   -0.2989    2.2456 H         1 <0>         0.1358
     42 H16        -0.3901    0.3761    3.8984 H         1 <0>         0.1410
     43 H17        -0.6876   -1.6660    4.7651 H         1 <0>         0.4354
     44 H18         1.2857   -6.7406   -2.6769 H         1 <0>         0.4255
     45 H19         0.0975   -2.1850    3.4112 H         1 <0>         0.4318
@<TRIPOS>BOND
     1    1    2 1
     2    1   29 1
     3    1   30 1
     4    1   31 1
     5    2    3 1
     6    3    8 2
     7    3    4 1
     8    4    5 2
     9    4   32 1
    10    5    6 1
    11    5   33 1
    12    6    7 1
    13    6    8 1
    14    8    9 1
    15    9   10 2
    16    9   34 1
    17   10   27 1
    18   10   11 1
    19   11   16 ar
    20   11   12 ar
    21   12   13 ar
    22   12   26 1
    23   13   14 ar
    24   13   35 1
    25   14   15 ar
    26   14   36 1
    27   15   16 ar
    28   15   25 1
    29   16   17 1
    30   17   18 3
    31   18   19 1
    32   19   20 1
    33   19   24 1
    34   19   21 1
    35   21   22 1
    36   21   37 1
    37   21   38 1
    38   22   23 1
    39   22   39 1
    40   22   40 1
    41   23   24 1
    42   23   41 1
    43   23   42 1
    44   24   43 1
    45   24   45 1
    46   26   27 am
    47   26   44 1
    48   27   28 2
@<TRIPOS>MOLECULE
CHEMBL507142
   53    56     0     0     0
SMALL
USER_CHARGES

@<TRIPOS>ATOM
      1 C1         -5.8324   -0.3128    0.4470 C.3       1 <0>        -0.1764
      2 C2         -4.7431   -0.9823    1.2873 C.3       1 <0>         0.1016
      3 C3         -5.1747   -2.4071    1.6401 C.3       1 <0>        -0.1774
      4 N1         -3.4941   -1.0256    0.5229 N.pl3     1 <0>        -0.3756
      5 C4         -2.2916   -0.4594    0.8864 C.2       1 <0>         0.0914
      6 C5         -1.4126   -0.7457   -0.1142 C.2       1 <0>         0.0458
      7 N2         -2.0635   -1.4556   -1.0407 N.pl3     1 <0>        -0.4789
      8 C6         -3.3031   -1.6321   -0.6663 C.cat     1 <0>         0.3561
      9 C7         -4.3513   -2.3887   -1.4407 C.3       1 <0>        -0.1494
     10 C8         -3.8905   -3.5964   -2.2593 C.3       1 <0>        -0.1440
     11 C9         -4.3005   -2.3036   -2.9675 C.3       1 <0>        -0.1439
     12 C10        -2.0112    0.3063    2.1171 C.ar      1 <0>         0.2601
     13 C11        -0.7091    0.7323    2.4091 C.ar      1 <0>        -0.2453
     14 C12        -0.4960    1.4460    3.5729 C.ar      1 <0>         0.2141
     15 N3         -1.5203    1.7045    4.3721 N.ar      1 <0>        -0.5344
     16 C13        -2.7425    1.2896    4.0721 C.ar      1 <0>         0.5793
     17 N4         -2.9940    0.6081    2.9659 N.ar      1 <0>        -0.5656
     18 N5         -3.7855    1.5816    4.9367 N.pl3     1 <0>        -0.6286
     19 C14        -3.5649    2.3975    6.0433 C.ar      1 <0>         0.1766
     20 C15        -4.2517    2.1587    7.2301 C.ar      1 <0>        -0.1480
     21 C16        -4.0359    2.9633    8.3257 C.ar      1 <0>        -0.0342
     22 C17        -3.1254    4.0209    8.2456 C.ar      1 <0>        -0.1447
     23 C18        -2.4369    4.2578    7.0524 C.ar      1 <0>        -0.0643
     24 C19        -2.6537    3.4465    5.9620 C.ar      1 <0>        -0.1197
     25 C20        -2.8920    4.8857    9.4181 C.2       1 <0>         0.5555
     26 O1         -3.4918    4.6788   10.4553 O.2       1 <0>        -0.5317
     27 N6         -2.0138    5.9051    9.3393 N.am      1 <0>        -0.7309
     28 C21        -1.7820    6.7638   10.5034 C.3       1 <0>         0.0849
     29 H1         -6.7827   -0.3614    0.9786 H         1 <0>         0.1018
     30 H2         -5.5669    0.7298    0.2720 H         1 <0>         0.0744
     31 H3         -5.9235   -0.8297   -0.5083 H         1 <0>         0.0728
     32 H4         -4.5889   -0.4120    2.2033 H         1 <0>         0.1597
     33 H5         -5.2434   -3.0020    0.7294 H         1 <0>         0.0729
     34 H6         -4.4408   -2.8534    2.3112 H         1 <0>         0.0736
     35 H7         -6.1475   -2.3810    2.1312 H         1 <0>         0.1020
     36 H8         -0.3742   -0.4512   -0.1521 H         1 <0>         0.2332
     37 H9         -5.3339   -2.4433   -0.9721 H         1 <0>         0.1629
     38 H10        -2.8291   -3.8436   -2.2378 H         1 <0>         0.1085
     39 H11        -4.5699   -4.4458   -2.3293 H         1 <0>         0.1313
     40 H12        -5.2497   -2.3025   -3.5034 H         1 <0>         0.1313
     41 H13        -3.5089   -1.7003   -3.4118 H         1 <0>         0.1086
     42 H14         0.1089    0.5080    1.7406 H         1 <0>         0.1592
     43 H15         0.4956    1.7893    3.8286 H         1 <0>         0.1888
     44 H16        -4.6692    1.2176    4.7710 H         1 <0>         0.4271
     45 H17        -4.9550    1.3414    7.2913 H         1 <0>         0.1350
     46 H18        -4.5696    2.7779    9.2461 H         1 <0>         0.1449
     47 H19        -1.7331    5.0743    6.9873 H         1 <0>         0.1316
     48 H20        -2.1190    3.6265    5.0410 H         1 <0>         0.1381
     49 H21        -1.5352    6.0702    8.5119 H         1 <0>         0.4008
     50 H22        -2.7170    7.2435   10.7930 H         1 <0>         0.0636
     51 H23        -1.4114    6.1603   11.3320 H         1 <0>         0.0636
     52 H24        -1.0452    7.5265   10.2514 H         1 <0>         0.0790
     53 H25        -1.6743   -1.7918   -1.8631 H         1 <0>         0.4633
@<TRIPOS>BOND
     1    1    2 1
     2    1   29 1
     3    1   30 1
     4    1   31 1
     5    2    3 1
     6    2    4 1
     7    2   32 1
     8    3   33 1
     9    3   34 1
    10    3   35 1
    11    4    8 1
    12    4    5 1
    13    5    6 2
    14    5   12 1
    15    6    7 1
    16    6   36 1
    17    7    8 2
    18    7   53 1
    19    8    9 1
    20    9   11 1
    21    9   10 1
    22    9   37 1
    23   10   11 1
    24   10   38 1
    25   10   39 1
    26   11   40 1
    27   11   41 1
    28   12   17 ar
    29   12   13 ar
    30   13   14 ar
    31   13   42 1
    32   14   15 ar
    33   14   43 1
    34   15   16 ar
    35   16   17 ar
    36   16   18 1
    37   18   19 1
    38   18   44 1
    39   19   24 ar
    40   19   20 ar
    41   20   21 ar
    42   20   45 1
    43   21   22 ar
    44   21   46 1
    45   22   23 ar
    46   22   25 1
    47   23   24 ar
    48   23   47 1
    49   24   48 1
    50   25   26 2
    51   25   27 am
    52   27   28 1
    53   27   49 1
    54   28   50 1
    55   28   51 1
    56   28   52 1
@<TRIPOS>MOLECULE
CHEMBL507142
   52    55     0     0     0
SMALL
USER_CHARGES

@<TRIPOS>ATOM
      1 C1         -5.8650   -0.3643    0.4227 C.3       1 <0>        -0.1687
      2 C2         -4.7622   -0.9484    1.3078 C.3       1 <0>         0.1094
      3 C3         -5.1609   -2.3553    1.7577 C.3       1 <0>        -0.1663
      4 N1         -3.5108   -1.0147    0.5489 N.pl3     1 <0>        -0.4216
      5 C4         -2.2996   -0.4709    0.9178 C.2       1 <0>        -0.0146
      6 C5         -1.4217   -0.7732   -0.0790 C.2       1 <0>         0.0406
      7 N2         -2.0815   -1.4708   -1.0084 N.2       1 <0>        -0.4900
      8 C6         -3.3258   -1.6244   -0.6396 C.2       1 <0>         0.2686
      9 C7         -4.3844   -2.3614   -1.4188 C.3       1 <0>        -0.1009
     10 C8         -3.9206   -3.2506   -2.5743 C.3       1 <0>        -0.1483
     11 C9         -4.6288   -1.9259   -2.8650 C.3       1 <0>        -0.1564
     12 C10        -2.0105    0.2893    2.1500 C.ar      1 <0>         0.3015
     13 C11        -0.7026    0.6941    2.4461 C.ar      1 <0>        -0.2597
     14 C12        -0.4815    1.4034    3.6111 C.ar      1 <0>         0.1980
     15 N3         -1.5039    1.6777    4.4075 N.ar      1 <0>        -0.5585
     16 C13        -2.7317    1.2828    4.1036 C.ar      1 <0>         0.5668
     17 N4         -2.9909    0.6063    2.9961 N.ar      1 <0>        -0.5718
     18 N5         -3.7724    1.5910    4.9654 N.pl3     1 <0>        -0.6381
     19 C14        -3.5426    2.4053    6.0712 C.ar      1 <0>         0.1960
     20 C15        -4.2294    2.1730    7.2594 C.ar      1 <0>        -0.1572
     21 C16        -4.0046    2.9761    8.3542 C.ar      1 <0>        -0.0337
     22 C17        -3.0851    4.0257    8.2721 C.ar      1 <0>        -0.1585
     23 C18        -2.3968    4.2561    7.0776 C.ar      1 <0>        -0.0633
     24 C19        -2.6225    3.4464    5.9878 C.ar      1 <0>        -0.1224
     25 C20        -2.8421    4.8890    9.4438 C.2       1 <0>         0.5595
     26 O1         -3.4418    4.6877   10.4821 O.2       1 <0>        -0.5376
     27 N6         -1.9552    5.9006    9.3630 N.am      1 <0>        -0.7331
     28 C21        -1.7139    6.7578   10.5264 C.3       1 <0>         0.0866
     29 H1         -6.8145   -0.3952    0.9573 H         1 <0>         0.0786
     30 H2         -5.6220    0.6686    0.1734 H         1 <0>         0.0623
     31 H3         -5.9444   -0.9501   -0.4931 H         1 <0>         0.0711
     32 H4         -4.6234   -0.3129    2.1824 H         1 <0>         0.1351
     33 H5         -5.2126   -3.0132    0.8902 H         1 <0>         0.0655
     34 H6         -4.4187   -2.7365    2.4591 H         1 <0>         0.0617
     35 H7         -6.1355   -2.3185    2.2444 H         1 <0>         0.0794
     36 H8         -0.3779   -0.4980   -0.1122 H         1 <0>         0.1800
     37 H9         -5.2465   -2.6951   -0.8412 H         1 <0>         0.1254
     38 H10        -2.8497   -3.3025   -2.7708 H         1 <0>         0.1106
     39 H11        -4.4774   -4.1696   -2.7569 H         1 <0>         0.1023
     40 H12        -5.6515   -1.9734   -3.2389 H         1 <0>         0.1029
     41 H13        -4.0239   -1.1063   -3.2529 H         1 <0>         0.1014
     42 H14         0.1136    0.4571    1.7798 H         1 <0>         0.1532
     43 H15         0.5147    1.7305    3.8699 H         1 <0>         0.1771
     44 H16        -4.6608    1.2393    4.7983 H         1 <0>         0.4244
     45 H17        -4.9397    1.3618    7.3222 H         1 <0>         0.1329
     46 H18        -4.5383    2.7957    9.2757 H         1 <0>         0.1407
     47 H19        -1.6860    5.0665    7.0109 H         1 <0>         0.1281
     48 H20        -2.0880    3.6213    5.0658 H         1 <0>         0.1393
     49 H21        -1.4767    6.0612    8.5347 H         1 <0>         0.4013
     50 H22        -2.6441    7.2456   10.8174 H         1 <0>         0.0616
     51 H23        -1.3470    6.1514   11.3545 H         1 <0>         0.0617
     52 H24        -0.9709    7.5139   10.2727 H         1 <0>         0.0770
@<TRIPOS>BOND
     1    1    2 1
     2    1   29 1
     3    1   30 1
     4    1   31 1
     5    2    3 1
     6    2    4 1
     7    2   32 1
     8    3   33 1
     9    3   34 1
    10    3   35 1
    11    4    8 1
    12    4    5 1
    13    5    6 2
    14    5   12 1
    15    6    7 1
    16    6   36 1
    17    7    8 2
    18    8    9 1
    19    9   11 1
    20    9   10 1
    21    9   37 1
    22   10   11 1
    23   10   38 1
    24   10   39 1
    25   11   40 1
    26   11   41 1
    27   12   17 ar
    28   12   13 ar
    29   13   14 ar
    30   13   42 1
    31   14   15 ar
    32   14   43 1
    33   15   16 ar
    34   16   17 ar
    35   16   18 1
    36   18   19 1
    37   18   44 1
    38   19   24 ar
    39   19   20 ar
    40   20   21 ar
    41   20   45 1
    42   21   22 ar
    43   21   46 1
    44   22   23 ar
    45   22   25 1
    46   23   24 ar
    47   23   47 1
    48   24   48 1
    49   25   26 2
    50   25   27 am
    51   27   28 1
    52   27   49 1
    53   28   50 1
    54   28   51 1
    55   28   52 1
@<TRIPOS>MOLECULE
CHEMBL363130
   39    41     0     0     0
SMALL
USER_CHARGES

@<TRIPOS>ATOM
      1 C1         -1.0617    1.4557    0.0928 C.3       1 <0>        -0.1099
      2 C2         -0.9641   -0.0481    0.0796 C.2       1 <0>        -0.0139
      3 C3         -1.0939   -0.7786   -1.0764 C.2       1 <0>        -0.1961
      4 C4         -0.9952   -2.1302   -1.0170 C.2       1 <0>        -0.2318
      5 S1         -0.7233   -2.4527    0.6091 S.3       1 <0>         0.3035
      6 C5         -0.7317   -0.7831    1.2339 C.2       1 <0>        -0.2956
      7 C6         -0.5441   -0.3107    2.6063 C.2       1 <0>         0.6544
      8 O1         -0.5837    0.8806    2.8504 O.2       1 <0>        -0.4861
      9 N1         -0.3274   -1.1953    3.5998 N.am      1 <0>        -0.3991
     10 C7         -0.1411   -0.9126    4.9201 C.2       1 <0>         0.5976
     11 N2          0.0371   -2.0514    5.5533 N.2       1 <0>        -0.5910
     12 C8         -0.0276   -3.0672    4.6835 C.2       1 <0>         0.5221
     13 N3         -0.2544   -2.5928    3.4825 N.2       1 <0>        -0.3584
     14 N4          0.1173   -4.4155    5.0048 N.pl3     1 <0>        -0.6253
     15 C9          0.2382   -4.8063    6.3410 C.ar      1 <0>         0.2352
     16 C10        -0.3651   -4.0565    7.3430 C.ar      1 <0>        -0.1520
     17 C11        -0.2440   -4.4458    8.6624 C.ar      1 <0>         0.0050
     18 C12         0.4767   -5.5806    8.9868 C.ar      1 <0>        -0.7028
     19 C13         1.0785   -6.3293    7.9919 C.ar      1 <0>         0.0115
     20 C14         0.9570   -5.9486    6.6700 C.ar      1 <0>        -0.1754
     21 S2          0.6291   -6.0733   10.6716 S.o2      1 <0>         2.7035
     22 O2          1.8081   -6.8617   10.7591 O.2       1 <0>        -0.9649
     23 O3          0.4344   -4.9044   11.4558 O.2       1 <0>        -0.9624
     24 N5         -0.6410   -7.0828   11.0033 N.pl3     1 <0>        -1.2492
     25 N6         -0.1395    0.3438    5.4904 N.pl3     1 <0>        -0.7927
     26 H1         -0.0725    1.8854   -0.0653 H         1 <0>         0.0791
     27 H2         -1.7314    1.7833   -0.7024 H         1 <0>         0.0709
     28 H3         -1.4518    1.7861    1.0555 H         1 <0>         0.0854
     29 H4         -1.2723   -0.2837   -2.0196 H         1 <0>         0.1388
     30 H5         -1.0736   -2.8374   -1.8295 H         1 <0>         0.1906
     31 H6          0.1342   -5.0827    4.3009 H         1 <0>         0.4322
     32 H7         -0.9278   -3.1699    7.0903 H         1 <0>         0.1503
     33 H8         -0.7124   -3.8631    9.4418 H         1 <0>         0.1449
     34 H9          1.6409   -7.2148    8.2487 H         1 <0>         0.1466
     35 H10         1.4235   -6.5362    5.8931 H         1 <0>         0.1384
     36 H11        -0.5428   -7.7843   11.6661 H         1 <0>         0.4212
     37 H12        -1.4832   -6.9727   10.5349 H         1 <0>         0.4169
     38 H13        -0.2802    1.1278    4.9369 H         1 <0>         0.4297
     39 H14         0.0025    0.4430    6.4448 H         1 <0>         0.4287
@<TRIPOS>BOND
     1    1    2 1
     2    1   26 1
     3    1   27 1
     4    1   28 1
     5    2    6 2
     6    2    3 1
     7    3    4 2
     8    3   29 1
     9    4    5 1
    10    4   30 1
    11    5    6 1
    12    6    7 1
    13    7    8 2
    14    7    9 am
    15    9   13 1
    16    9   10 1
    17   10   11 2
    18   10   25 1
    19   11   12 1
    20   12   13 2
    21   12   14 1
    22   14   15 1
    23   14   31 1
    24   15   20 ar
    25   15   16 ar
    26   16   17 ar
    27   16   32 1
    28   17   18 ar
    29   17   33 1
    30   18   19 ar
    31   18   21 1
    32   19   20 ar
    33   19   34 1
    34   20   35 1
    35   21   22 2
    36   21   23 2
    37   21   24 1
    38   24   36 1
    39   24   37 1
    40   25   38 1
    41   25   39 1
@<TRIPOS>MOLECULE
CHEMBL183269
   60    64     0     0     0
SMALL
USER_CHARGES

@<TRIPOS>ATOM
      1 C1          0.2640    1.4384    0.1312 C.3       1 <0>         0.0198
      2 O1          0.3790    0.0144    0.1638 O.3       1 <0>        -0.2951
      3 C2          0.7854   -0.5975   -0.9781 C.ar      1 <0>         0.1759
      4 C3          1.0734    0.1725   -2.1100 C.ar      1 <0>        -0.2148
      5 C4          1.4822   -0.4133   -3.2679 C.ar      1 <0>        -0.0213
      6 C5          1.6185   -1.8085   -3.3315 C.ar      1 <0>        -0.2402
      7 C6          2.0381   -2.4616   -4.5042 C.ar      1 <0>         0.2450
      8 N1          2.1436   -3.7741   -4.4896 N.ar      1 <0>        -0.5555
      9 C7          1.8635   -4.4843   -3.3983 C.ar      1 <0>         0.5726
     10 N2          1.4661   -3.9275   -2.2706 N.ar      1 <0>        -0.5673
     11 C8          1.3288   -2.5976   -2.1877 C.ar      1 <0>         0.2460
     12 C9          0.9147   -1.9690   -1.0065 C.ar      1 <0>        -0.1241
     13 C10         0.6078   -2.7866    0.2217 C.3       1 <0>        -0.0326
     14 C11        -0.8383   -2.5183    0.6873 C.3       1 <0>        -0.1129
     15 C12        -0.7502   -2.5423    2.2335 C.3       1 <0>        -0.1216
     16 C13         0.6092   -1.8530    2.5091 C.3       1 <0>        -0.1177
     17 C14         1.5281   -2.3636    1.3800 C.3       1 <0>        -0.1084
     18 N3          1.9944   -5.8611   -3.4497 N.pl3     1 <0>        -0.6335
     19 C15         2.5248   -6.4721   -4.5932 C.ar      1 <0>         0.1000
     20 C16         3.5850   -5.8811   -5.2677 C.ar      1 <0>        -0.0553
     21 C17         4.1079   -6.4832   -6.3948 C.ar      1 <0>        -0.1821
     22 C18         3.5738   -7.6802   -6.8537 C.ar      1 <0>         0.2104
     23 C19         2.5138   -8.2715   -6.1788 C.ar      1 <0>        -0.1818
     24 C20         1.9941   -7.6717   -5.0489 C.ar      1 <0>        -0.0910
     25 N4          4.1034   -8.2904   -7.9964 N.pl3     1 <0>        -0.6294
     26 C21         3.4741   -9.4907   -8.5639 C.3       1 <0>         0.1209
     27 C22         3.1831   -9.2404  -10.0470 C.3       1 <0>        -0.1374
     28 C23         4.4735   -8.8145  -10.7511 C.3       1 <0>        -0.1193
     29 C24         4.9878   -7.5122  -10.1334 C.3       1 <0>        -0.1378
     30 C25         5.2957   -7.7394   -8.6548 C.3       1 <0>         0.1206
     31 H1          1.2336    1.8759   -0.1064 H         1 <0>         0.0574
     32 H2         -0.4611    1.7270   -0.6298 H         1 <0>         0.0574
     33 H3         -0.0684    1.7985    1.1048 H         1 <0>         0.1024
     34 H4          0.9695    1.2465   -2.0642 H         1 <0>         0.1357
     35 H5          1.7006    0.1929   -4.1347 H         1 <0>         0.1373
     36 H6          2.2684   -1.8993   -5.3970 H         1 <0>         0.1763
     37 H7          0.7410   -3.8469    0.0070 H         1 <0>         0.0913
     38 H8         -1.1761   -1.5420    0.3396 H         1 <0>         0.0711
     39 H9         -1.5056   -3.3031    0.3310 H         1 <0>         0.0586
     40 H10        -1.5682   -1.9739    2.6759 H         1 <0>         0.0625
     41 H11        -0.7457   -3.5673    2.6042 H         1 <0>         0.0627
     42 H12         0.5052   -0.7693    2.4556 H         1 <0>         0.0689
     43 H13         0.9983   -2.1522    3.4823 H         1 <0>         0.0576
     44 H14         2.1074   -3.2188    1.7281 H         1 <0>         0.0588
     45 H15         2.1968   -1.5670    1.0539 H         1 <0>         0.0595
     46 H16         1.7188   -6.4030   -2.6938 H         1 <0>         0.4213
     47 H17         4.0003   -4.9502   -4.9109 H         1 <0>         0.1252
     48 H18         4.9320   -6.0232   -6.9198 H         1 <0>         0.1245
     49 H19         2.0981   -9.2022   -6.5358 H         1 <0>         0.1256
     50 H20         1.1723   -8.1335   -4.5219 H         1 <0>         0.1230
     51 H21         4.1496  -10.3401   -8.4624 H         1 <0>         0.0606
     52 H22         2.5419   -9.6977   -8.0385 H         1 <0>         0.0823
     53 H23         2.8048  -10.1554  -10.5029 H         1 <0>         0.0725
     54 H24         2.4383   -8.4505  -10.1433 H         1 <0>         0.0662
     55 H25         5.2259   -9.5943  -10.6332 H         1 <0>         0.0630
     56 H26         4.2744   -8.6596  -11.8115 H         1 <0>         0.0639
     57 H27         5.8939   -7.1971  -10.6508 H         1 <0>         0.0728
     58 H28         4.2260   -6.7385  -10.2289 H         1 <0>         0.0662
     59 H29         5.5648   -6.7912   -8.1893 H         1 <0>         0.0829
     60 H30         6.1230   -8.4428   -8.5608 H         1 <0>         0.0603
@<TRIPOS>BOND
     1    1    2 1
     2    1   31 1
     3    1   32 1
     4    1   33 1
     5    2    3 1
     6    3   12 ar
     7    3    4 ar
     8    4    5 ar
     9    4   34 1
    10    5    6 ar
    11    5   35 1
    12    6   11 ar
    13    6    7 ar
    14    7    8 ar
    15    7   36 1
    16    8    9 ar
    17    9   10 ar
    18    9   18 1
    19   10   11 ar
    20   11   12 ar
    21   12   13 1
    22   13   17 1
    23   13   14 1
    24   13   37 1
    25   14   15 1
    26   14   38 1
    27   14   39 1
    28   15   16 1
    29   15   40 1
    30   15   41 1
    31   16   17 1
    32   16   42 1
    33   16   43 1
    34   17   44 1
    35   17   45 1
    36   18   19 1
    37   18   46 1
    38   19   24 ar
    39   19   20 ar
    40   20   21 ar
    41   20   47 1
    42   21   22 ar
    43   21   48 1
    44   22   23 ar
    45   22   25 1
    46   23   24 ar
    47   23   49 1
    48   24   50 1
    49   25   30 1
    50   25   26 1
    51   26   27 1
    52   26   51 1
    53   26   52 1
    54   27   28 1
    55   27   53 1
    56   27   54 1
    57   28   29 1
    58   28   55 1
    59   28   56 1
    60   29   30 1
    61   29   57 1
    62   29   58 1
    63   30   59 1
    64   30   60 1
@<TRIPOS>MOLECULE
CHEMBL183269
   61    65     0     0     0
SMALL
USER_CHARGES

@<TRIPOS>ATOM
      1 C1          0.6738    1.4245    0.3286 C.3       1 <0>         0.0168
      2 O1          0.6789   -0.0044    0.3129 O.3       1 <0>        -0.2910
      3 C2          1.0854   -0.6068   -0.8340 C.ar      1 <0>         0.1835
      4 C3          1.4785    0.1766   -1.9244 C.ar      1 <0>        -0.1994
      5 C4          1.8901   -0.3993   -3.0862 C.ar      1 <0>        -0.0272
      6 C5          1.9226   -1.7979   -3.1961 C.ar      1 <0>        -0.2254
      7 C6          2.3404   -2.4414   -4.3747 C.ar      1 <0>         0.2486
      8 N1          2.3452   -3.7579   -4.4046 N.ar      1 <0>        -0.5684
      9 C7          1.9663   -4.4808   -3.3523 C.ar      1 <0>         0.5540
     10 N2          1.5651   -3.9336   -2.2214 N.ar      1 <0>        -0.5432
     11 C8          1.5259   -2.6006   -2.0946 C.ar      1 <0>         0.2384
     12 C9          1.1113   -1.9824   -0.9082 C.ar      1 <0>        -0.1197
     13 C10         0.6917   -2.8150    0.2758 C.3       1 <0>        -0.0339
     14 C11        -0.7482   -2.4516    0.6936 C.3       1 <0>        -0.1135
     15 C12        -0.7273   -2.5349    2.2401 C.3       1 <0>        -0.1222
     16 C13         0.6676   -1.9626    2.5945 C.3       1 <0>        -0.1189
     17 C14         1.5919   -2.5041    1.4844 C.3       1 <0>        -0.1088
     18 N3          1.9943   -5.8615   -3.4495 N.pl3     1 <0>        -0.6374
     19 C15         2.5237   -6.4713   -4.5908 C.ar      1 <0>         0.2327
     20 C16         3.5875   -5.8842   -5.2637 C.ar      1 <0>        -0.1025
     21 C17         4.1081   -6.4892   -6.3908 C.ar      1 <0>        -0.0642
     22 C18         3.5710   -7.6779   -6.8498 C.ar      1 <0>        -0.0841
     23 C19         2.5116   -8.2649   -6.1825 C.ar      1 <0>        -0.0593
     24 C20         1.9906   -7.6686   -5.0510 C.ar      1 <0>        -0.1378
     25 N4          4.1001   -8.2875   -7.9913 N.4       1 <0>        -0.3116
     26 C21         3.0552   -8.3925   -9.0169 C.3       1 <0>        -0.0068
     27 C22         3.6491   -8.9849  -10.2967 C.3       1 <0>        -0.1459
     28 C23         4.2122  -10.3767   -9.9950 C.3       1 <0>        -0.1394
     29 C24         5.2476  -10.2652   -8.8722 C.3       1 <0>        -0.1459
     30 C25         4.5945   -9.6254   -7.6452 C.3       1 <0>        -0.0067
     31 H1          1.6830    1.7935    0.1459 H         1 <0>         0.0605
     32 H2          0.0054    1.7940   -0.4491 H         1 <0>         0.0606
     33 H3          0.3290    1.7759    1.3011 H         1 <0>         0.1076
     34 H4          1.4545    1.2533   -1.8428 H         1 <0>         0.1424
     35 H5          2.1902    0.2173   -3.9206 H         1 <0>         0.1429
     36 H6          2.6502   -1.8685   -5.2363 H         1 <0>         0.1825
     37 H7          0.7530   -3.8745    0.0273 H         1 <0>         0.0903
     38 H8         -0.9959   -1.4409    0.3693 H         1 <0>         0.0718
     39 H9         -1.4575   -3.1699    0.2824 H         1 <0>         0.0595
     40 H10        -1.5178   -1.9203    2.6708 H         1 <0>         0.0654
     41 H11        -0.8164   -3.5692    2.5725 H         1 <0>         0.0639
     42 H12         0.6485   -0.8729    2.5772 H         1 <0>         0.0703
     43 H13         0.9915   -2.3240    3.5705 H         1 <0>         0.0606
     44 H14         2.0894   -3.4129    1.8230 H         1 <0>         0.0602
     45 H15         2.3322   -1.7510    1.2146 H         1 <0>         0.0598
     46 H16         1.6466   -6.4058   -2.7258 H         1 <0>         0.4326
     47 H17         4.0070   -4.9554   -4.9062 H         1 <0>         0.1568
     48 H18         4.9353   -6.0332   -6.9145 H         1 <0>         0.1458
     49 H19         2.0942   -9.1932   -6.5438 H         1 <0>         0.1438
     50 H20         1.1663   -8.1300   -4.5275 H         1 <0>         0.1493
     51 H21         2.2553   -9.0386   -8.6552 H         1 <0>         0.1264
     52 H22         2.6532   -7.4016   -9.2282 H         1 <0>         0.1302
     53 H23         2.8714   -9.0637  -11.0563 H         1 <0>         0.1122
     54 H24         4.4490   -8.3394  -10.6595 H         1 <0>         0.0877
     55 H25         3.4037  -11.0368   -9.6810 H         1 <0>         0.0815
     56 H26         4.6867  -10.7797  -10.8897 H         1 <0>         0.0942
     57 H27         5.6125  -11.2593   -8.6136 H         1 <0>         0.1123
     58 H28         6.0807   -9.6463   -9.2054 H         1 <0>         0.0877
     59 H29         5.3289   -9.5448   -6.8438 H         1 <0>         0.1301
     60 H30         3.7618  -10.2452   -7.3127 H         1 <0>         0.1266
     61 H31         4.8623   -7.7298   -8.3465 H         1 <0>         0.4239
@<TRIPOS>BOND
     1    1    2 1
     2    1   31 1
     3    1   32 1
     4    1   33 1
     5    2    3 1
     6    3   12 ar
     7    3    4 ar
     8    4    5 ar
     9    4   34 1
    10    5    6 ar
    11    5   35 1
    12    6   11 ar
    13    6    7 ar
    14    7    8 ar
    15    7   36 1
    16    8    9 ar
    17    9   10 ar
    18    9   18 1
    19   10   11 ar
    20   11   12 ar
    21   12   13 1
    22   13   17 1
    23   13   14 1
    24   13   37 1
    25   14   15 1
    26   14   38 1
    27   14   39 1
    28   15   16 1
    29   15   40 1
    30   15   41 1
    31   16   17 1
    32   16   42 1
    33   16   43 1
    34   17   44 1
    35   17   45 1
    36   18   19 1
    37   18   46 1
    38   19   24 ar
    39   19   20 ar
    40   20   21 ar
    41   20   47 1
    42   21   22 ar
    43   21   48 1
    44   22   23 ar
    45   22   25 1
    46   23   24 ar
    47   23   49 1
    48   24   50 1
    49   25   30 1
    50   25   26 1
    51   25   61 1
    52   26   27 1
    53   26   51 1
    54   26   52 1
    55   27   28 1
    56   27   53 1
    57   27   54 1
    58   28   29 1
    59   28   55 1
    60   28   56 1
    61   29   30 1
    62   29   57 1
    63   29   58 1
    64   30   59 1
    65   30   60 1
@<TRIPOS>MOLECULE
CHEMBL321517
   38    40     0     0     0
SMALL
USER_CHARGES

@<TRIPOS>ATOM
      1 C1         -0.0396    1.3971   -0.2438 C.ar      1 <0>        -0.0369
      2 C2          1.1299    2.1069   -0.4150 C.ar      1 <0>        -0.2019
      3 C3          2.3176    1.4368   -0.6846 C.ar      1 <0>         0.2277
      4 C4          2.3288    0.0503   -0.7821 C.ar      1 <0>        -0.2017
      5 C5          1.1615   -0.6632   -0.6110 C.ar      1 <0>        -0.0397
      6 C6         -0.0304    0.0068   -0.3407 C.ar      1 <0>        -0.0847
      7 C7         -1.2880   -0.7592   -0.1563 C.2       1 <0>         0.1584
      8 C8         -1.4192   -2.1589   -0.2216 C.2       1 <0>        -0.3015
      9 C9         -2.7253   -2.4643    0.0013 C.2       1 <0>         0.3398
     10 N1         -3.3941   -1.2980    0.2002 N.pl3     1 <0>        -0.4954
     11 H1         -4.3426   -1.2089    0.3825 H         1 <0>         0.4384
     12 N2         -2.4727   -0.2477    0.1023 N.2       1 <0>        -0.2866
     13 N3         -3.2783   -3.7422    0.0217 N.pl3     1 <0>        -0.6576
     14 C10        -4.6613   -3.9031    0.1372 C.ar      1 <0>         0.2306
     15 C11        -5.5208   -2.9838   -0.4513 C.ar      1 <0>        -0.2060
     16 C12        -6.8872   -3.1459   -0.3351 C.ar      1 <0>         0.0235
     17 C13        -7.4004   -4.2218    0.3661 C.ar      1 <0>        -0.7067
     18 C14        -6.5477   -5.1387    0.9532 C.ar      1 <0>         0.0211
     19 C15        -5.1803   -4.9859    0.8361 C.ar      1 <0>        -0.1773
     20 S1         -9.1446   -4.4244    0.5124 S.o2      1 <0>         2.7044
     21 O1         -9.3662   -5.2070    1.6775 O.2       1 <0>        -0.9629
     22 O2         -9.7190   -3.1362    0.3393 O.2       1 <0>        -0.9630
     23 N4         -9.6407   -5.3406   -0.7747 N.pl3     1 <0>        -1.2503
     24 N5          3.5007    2.1575   -0.8581 N.pl3     1 <0>        -0.8755
     25 H2         -0.9614    1.9178   -0.0304 H         1 <0>         0.1291
     26 H3          1.1232    3.1843   -0.3401 H         1 <0>         0.1235
     27 H4          3.2525   -0.4684   -0.9922 H         1 <0>         0.1242
     28 H5          1.1706   -1.7405   -0.6869 H         1 <0>         0.1266
     29 H6         -0.6246   -2.8644   -0.4147 H         1 <0>         0.1522
     30 H7         -2.7033   -4.5206   -0.0444 H         1 <0>         0.4317
     31 H8         -5.1207   -2.1432   -0.9988 H         1 <0>         0.1371
     32 H9         -7.5560   -2.4315   -0.7921 H         1 <0>         0.1498
     33 H10        -6.9518   -5.9778    1.5002 H         1 <0>         0.1503
     34 H11        -4.5150   -5.7050    1.2907 H         1 <0>         0.1418
     35 H12        -8.9934   -5.6517   -1.4267 H         1 <0>         0.4167
     36 H13       -10.5786   -5.5662   -0.8766 H         1 <0>         0.4218
     37 H14         3.4935    3.1251   -0.7905 H         1 <0>         0.3996
     38 H15         4.3298    1.6905   -1.0462 H         1 <0>         0.3994
@<TRIPOS>BOND
     1    1    6 ar
     2    1    2 ar
     3    1   25 1
     4    2    3 ar
     5    2   26 1
     6    3    4 ar
     7    3   24 1
     8    4    5 ar
     9    4   27 1
    10    5    6 ar
    11    5   28 1
    12    6    7 1
    13    7   12 2
    14    7    8 1
    15    8    9 2
    16    8   29 1
    17    9   10 1
    18    9   13 1
    19   10   11 1
    20   10   12 1
    21   13   14 1
    22   13   30 1
    23   14   19 ar
    24   14   15 ar
    25   15   16 ar
    26   15   31 1
    27   16   17 ar
    28   16   32 1
    29   17   18 ar
    30   17   20 1
    31   18   19 ar
    32   18   33 1
    33   19   34 1
    34   20   21 2
    35   20   22 2
    36   20   23 1
    37   23   35 1
    38   23   36 1
    39   24   37 1
    40   24   38 1
@<TRIPOS>MOLECULE
CHEMBL321517
   39    41     0     0     0
SMALL
USER_CHARGES

@<TRIPOS>ATOM
      1 C1         -0.0396    1.3971   -0.2438 C.ar      1 <0>        -0.0261
      2 C2          1.1299    2.1069   -0.4150 C.ar      1 <0>        -0.1983
      3 C3          2.3176    1.4368   -0.6846 C.ar      1 <0>         0.2736
      4 C4          2.3288    0.0503   -0.7820 C.ar      1 <0>        -0.2010
      5 C5          1.1615   -0.6632   -0.6110 C.ar      1 <0>         0.0025
      6 C6         -0.0304    0.0068   -0.3407 C.ar      1 <0>        -0.1681
      7 C7         -1.2880   -0.7592   -0.1563 C.2       1 <0>         0.3320
      8 C8         -1.4192   -2.1589   -0.2216 C.2       1 <0>        -0.2924
      9 C9         -2.7253   -2.4643    0.0013 C.2       1 <0>         0.4710
     10 N1         -3.3941   -1.2980    0.2002 N.pl3     1 <0>        -0.4666
     11 H1         -4.3426   -1.2089    0.3825 H         1 <0>         0.4675
     12 N2         -2.4727   -0.2477    0.1023 N.pl3     1 <0>        -0.3984
     13 N3         -3.2783   -3.7422    0.0217 N.pl3     1 <0>        -0.6265
     14 C10        -4.6613   -3.9031    0.1372 C.ar      1 <0>         0.1851
     15 C11        -5.5208   -2.9838   -0.4513 C.ar      1 <0>        -0.2019
     16 C12        -6.8872   -3.1459   -0.3351 C.ar      1 <0>         0.0199
     17 C13        -7.4004   -4.2218    0.3661 C.ar      1 <0>        -0.6860
     18 C14        -6.5477   -5.1387    0.9532 C.ar      1 <0>         0.0267
     19 C15        -5.1803   -4.9859    0.8361 C.ar      1 <0>        -0.1505
     20 S1         -9.1446   -4.4244    0.5124 S.o2      1 <0>         2.7016
     21 O1         -9.3662   -5.2070    1.6775 O.2       1 <0>        -0.9520
     22 O2         -9.7190   -3.1362    0.3393 O.2       1 <0>        -0.9528
     23 N4         -9.6407   -5.3406   -0.7747 N.pl3     1 <0>        -1.2451
     24 N5          3.5007    2.1575   -0.8581 N.pl3     1 <0>        -0.8522
     25 H2         -0.9614    1.9178   -0.0304 H         1 <0>         0.1253
     26 H3          1.1232    3.1843   -0.3400 H         1 <0>         0.1390
     27 H4          3.2525   -0.4684   -0.9922 H         1 <0>         0.1414
     28 H5          1.1706   -1.7405   -0.6869 H         1 <0>         0.1416
     29 H6         -0.6246   -2.8644   -0.4147 H         1 <0>         0.1983
     30 H7         -2.7033   -4.5206   -0.0444 H         1 <0>         0.4512
     31 H8         -5.1207   -2.1432   -0.9988 H         1 <0>         0.1343
     32 H9         -7.5560   -2.4315   -0.7921 H         1 <0>         0.1577
     33 H10        -6.9518   -5.9778    1.5002 H         1 <0>         0.1606
     34 H11        -4.5150   -5.7050    1.2907 H         1 <0>         0.1517
     35 H12       -10.4129   -5.9212   -0.6878 H         1 <0>         0.4271
     36 H13        -9.1591   -5.2968   -1.6156 H         1 <0>         0.4177
     37 H14         3.4935    3.1251   -0.7905 H         1 <0>         0.4097
     38 H15         4.3298    1.6905   -1.0462 H         1 <0>         0.4103
     39 H16        -2.6739    0.6956    0.2052 H         1 <0>         0.4724
@<TRIPOS>BOND
     1    1    6 ar
     2    1    2 ar
     3    1   25 1
     4    2    3 ar
     5    2   26 1
     6    3    4 ar
     7    3   24 1
     8    4    5 ar
     9    4   27 1
    10    5    6 ar
    11    5   28 1
    12    6    7 1
    13    7   12 2
    14    7    8 1
    15    8    9 2
    16    8   29 1
    17    9   10 1
    18    9   13 1
    19   10   11 1
    20   10   12 1
    21   12   39 1
    22   13   14 1
    23   13   30 1
    24   14   19 ar
    25   14   15 ar
    26   15   16 ar
    27   15   31 1
    28   16   17 ar
    29   16   32 1
    30   17   18 ar
    31   17   20 1
    32   18   19 ar
    33   18   33 1
    34   19   34 1
    35   20   21 2
    36   20   22 2
    37   20   23 1
    38   23   35 1
    39   23   36 1
    40   24   37 1
    41   24   38 1
@<TRIPOS>MOLECULE
CHEMBL321517
   38    40     0     0     0
SMALL
USER_CHARGES

@<TRIPOS>ATOM
      1 C1         -0.0748    1.3828   -0.6683 C.ar      1 <0>        -0.0521
      2 C2          1.0919    2.0841   -0.8842 C.ar      1 <0>        -0.1961
      3 C3          2.2897    1.4030   -1.0700 C.ar      1 <0>         0.2323
      4 C4          2.3143    0.0132   -1.0383 C.ar      1 <0>        -0.1971
      5 C5          1.1508   -0.6933   -0.8228 C.ar      1 <0>        -0.0332
      6 C6         -0.0530   -0.0123   -0.6359 C.ar      1 <0>        -0.1065
      7 C7         -1.3036   -0.7678   -0.4039 C.2       1 <0>         0.1770
      8 C8         -1.4282   -2.1267   -0.3476 C.2       1 <0>        -0.2890
      9 C9         -2.7767   -2.4234   -0.1108 C.2       1 <0>         0.3214
     10 N1         -3.4417   -1.2944   -0.0271 N.2       1 <0>        -0.3206
     11 H1         -2.7613    0.7094   -0.1829 H         1 <0>         0.4411
     12 N2         -2.5419   -0.2352   -0.2013 N.pl3     1 <0>        -0.4715
     13 N3         -3.3228   -3.7064    0.0152 N.pl3     1 <0>        -0.6456
     14 C10        -4.7053   -3.8686    0.1335 C.ar      1 <0>         0.2409
     15 C11        -5.5668   -2.9476   -0.4495 C.ar      1 <0>        -0.1675
     16 C12        -6.9329   -3.1112   -0.3310 C.ar      1 <0>         0.0122
     17 C13        -7.4437   -4.1903    0.3669 C.ar      1 <0>        -0.7095
     18 C14        -6.5891   -5.1090    0.9484 C.ar      1 <0>         0.0126
     19 C15        -5.2220   -4.9544    0.8294 C.ar      1 <0>        -0.1865
     20 S1         -9.1874   -4.3949    0.5161 S.o2      1 <0>         2.7037
     21 O1         -9.4060   -5.1825    1.6785 O.2       1 <0>        -0.9672
     22 O2         -9.7632   -3.1065    0.3496 O.2       1 <0>        -0.9666
     23 N4         -9.6856   -5.3062   -0.7737 N.pl3     1 <0>        -1.2514
     24 N5          3.4694    2.1157   -1.2894 N.pl3     1 <0>        -0.8722
     25 H2         -1.0042    1.9125   -0.5199 H         1 <0>         0.1197
     26 H3          1.0756    3.1637   -0.9093 H         1 <0>         0.1263
     27 H4          3.2462   -0.5133   -1.1830 H         1 <0>         0.1277
     28 H5          1.1704   -1.7728   -0.7989 H         1 <0>         0.1306
     29 H6         -0.6298   -2.8445   -0.4650 H         1 <0>         0.1519
     30 H7         -2.7413   -4.4827    0.0203 H         1 <0>         0.4252
     31 H8         -5.1686   -2.1044   -0.9944 H         1 <0>         0.1467
     32 H9         -7.6031   -2.3954   -0.7836 H         1 <0>         0.1433
     33 H10        -6.9914   -5.9504    1.4931 H         1 <0>         0.1450
     34 H11        -4.5552   -5.6746    1.2800 H         1 <0>         0.1360
     35 H12        -9.0395   -5.6142   -1.4284 H         1 <0>         0.4163
     36 H13       -10.6236   -5.5321   -0.8745 H         1 <0>         0.4200
     37 H14         3.4531    3.0853   -1.3120 H         1 <0>         0.4011
     38 H15         4.3055    1.6415   -1.4192 H         1 <0>         0.4014
@<TRIPOS>BOND
     1    1    6 ar
     2    1    2 ar
     3    1   25 1
     4    2    3 ar
     5    2   26 1
     6    3    4 ar
     7    3   24 1
     8    4    5 ar
     9    4   27 1
    10    5    6 ar
    11    5   28 1
    12    6    7 1
    13    7    8 2
    14    7   12 1
    15    8   29 1
    16    8    9 1
    17    9   13 1
    18    9   10 2
    19   10   12 1
    20   11   12 1
    21   13   14 1
    22   13   30 1
    23   14   19 ar
    24   14   15 ar
    25   15   16 ar
    26   15   31 1
    27   16   17 ar
    28   16   32 1
    29   17   18 ar
    30   17   20 1
    31   18   19 ar
    32   18   33 1
    33   19   34 1
    34   20   21 2
    35   20   22 2
    36   20   23 1
    37   23   35 1
    38   23   36 1
    39   24   37 1
    40   24   38 1
@<TRIPOS>MOLECULE
CHEMBL424469
   36    39     0     0     0
SMALL
USER_CHARGES

@<TRIPOS>ATOM
      1 C1         -0.6197   -2.0336    2.4502 C.ar      1 <0>        -0.1350
      2 C2          0.0456   -1.8694    3.6471 C.ar      1 <0>        -0.0085
      3 C3          0.4760   -0.6132    4.0366 C.ar      1 <0>        -0.6779
      4 C4          0.2432    0.4865    3.2294 C.ar      1 <0>        -0.0175
      5 C5         -0.4204    0.3372    2.0296 C.ar      1 <0>        -0.1148
      6 C6         -0.8584   -0.9280    1.6301 C.ar      1 <0>         0.0581
      7 N1         -1.5171   -1.0834    0.4415 N.2       1 <0>        -0.1533
      8 N2         -1.0218   -1.8430   -0.4759 N.2       1 <0>        -0.0494
      9 C7          0.1139   -2.5346   -0.2396 C.2       1 <0>        -0.0949
     10 C8          0.3052   -3.9860   -0.3653 C.ar      1 <0>        -0.0104
     11 C9          1.6317   -4.2414   -0.0208 C.ar      1 <0>         0.1014
     12 C10         2.1202   -5.5576   -0.0455 C.ar      1 <0>        -0.0820
     13 C11         1.3365   -6.6035   -0.3979 C.ar      1 <0>        -0.0380
     14 C12        -0.0130   -6.4127   -0.7570 C.ar      1 <0>         0.0267
     15 C13        -0.5592   -5.0962   -0.7477 C.ar      1 <0>         0.0735
     16 N3         -1.8182   -5.2316   -1.1212 N.2       1 <0>        -0.2561
     17 N4         -2.0525   -6.4787   -1.3418 N.pl3     1 <0>        -0.2035
     18 N5         -1.0065   -7.2016   -1.1366 N.2       1 <0>        -0.2609
     19 H1         -2.9101   -6.8299   -1.6283 H         1 <0>         0.4771
     20 N6          2.2265   -3.0337    0.2976 N.pl3     1 <0>        -0.5476
     21 H2          3.1507   -2.9278    0.5723 H         1 <0>         0.4266
     22 C14         1.3367   -2.0160    0.1651 C.2       1 <0>         0.2734
     23 O1          1.5988   -0.7085    0.3935 O.3       1 <0>        -0.4512
     24 S1          1.3242   -0.4128    5.5680 S.o2      1 <0>         2.7011
     25 O2          1.1417    0.9411    5.9592 O.2       1 <0>        -0.9553
     26 O3          0.9363   -1.5030    6.3927 O.2       1 <0>        -0.9567
     27 N7          2.9404   -0.6030    5.2611 N.pl3     1 <0>        -1.2493
     28 H3         -0.9515   -3.0152    2.1456 H         1 <0>         0.1394
     29 H4          0.2308   -2.7231    4.2821 H         1 <0>         0.1522
     30 H5          0.5817    1.4640    3.5399 H         1 <0>         0.1586
     31 H6         -0.6018    1.1964    1.4008 H         1 <0>         0.1535
     32 H7          3.1500   -5.7405    0.2239 H         1 <0>         0.1437
     33 H8          1.7522   -7.6003   -0.4044 H         1 <0>         0.1484
     34 H9          1.5365   -0.4515    1.3236 H         1 <0>         0.3906
     35 H10         3.2441   -0.7886    4.3588 H         1 <0>         0.4142
     36 H11         3.5832   -0.5289    5.9837 H         1 <0>         0.4238
@<TRIPOS>BOND
     1    1    6 ar
     2    1    2 ar
     3    1   28 1
     4    2    3 ar
     5    2   29 1
     6    3    4 ar
     7    3   24 1
     8    4    5 ar
     9    4   30 1
    10    5    6 ar
    11    5   31 1
    12    6    7 1
    13    7    8 2
    14    8    9 1
    15    9   22 2
    16    9   10 1
    17   10   15 ar
    18   10   11 ar
    19   11   12 ar
    20   11   20 1
    21   12   13 ar
    22   12   32 1
    23   13   14 ar
    24   13   33 1
    25   14   15 ar
    26   14   18 2
    27   15   16 2
    28   16   17 1
    29   17   19 1
    30   17   18 1
    31   20   21 1
    32   20   22 1
    33   22   23 1
    34   23   34 1
    35   24   25 2
    36   24   26 2
    37   24   27 1
    38   27   35 1
    39   27   36 1
@<TRIPOS>MOLECULE
CHEMBL424469
   36    39     0     0     0
SMALL
USER_CHARGES

@<TRIPOS>ATOM
      1 C1         -0.6153   -2.0347    2.4463 C.ar      1 <0>        -0.1338
      2 C2          0.0491   -1.8722    3.6440 C.ar      1 <0>        -0.0084
      3 C3          0.4756   -0.6160    4.0376 C.ar      1 <0>        -0.6752
      4 C4          0.2394    0.4856    3.2341 C.ar      1 <0>        -0.0172
      5 C5         -0.4238    0.3383    2.0338 C.ar      1 <0>        -0.1123
      6 C6         -0.8574   -0.9270    1.6298 C.ar      1 <0>         0.0525
      7 N1         -1.5152   -1.0807    0.4406 N.2       1 <0>        -0.1467
      8 N2         -1.0217   -1.8427   -0.4757 N.2       1 <0>        -0.0702
      9 C7          0.1129   -2.5338   -0.2396 C.2       1 <0>        -0.1056
     10 C8          0.3042   -3.9898   -0.3664 C.ar      1 <0>        -0.0636
     11 C9          1.6365   -4.2411   -0.0195 C.ar      1 <0>         0.1450
     12 C10         2.1218   -5.5512   -0.0454 C.ar      1 <0>        -0.1224
     13 C11         1.3149   -6.5860   -0.4043 C.ar      1 <0>        -0.0083
     14 C12        -0.0265   -6.3586   -0.7573 C.ar      1 <0>        -0.0225
     15 C13        -0.5327   -5.0504   -0.7359 C.ar      1 <0>         0.1401
     16 N3         -1.8472   -5.1425   -1.1200 N.pl3     1 <0>        -0.4784
     17 N4         -2.0980   -6.5015   -1.3600 N.2       1 <0>        -0.0070
     18 N5         -1.0251   -7.1772   -1.1435 N.2       1 <0>        -0.2062
     19 H1         -2.4787   -4.4115   -1.2077 H         1 <0>         0.4519
     20 N6          2.2275   -3.0315    0.2987 N.pl3     1 <0>        -0.5585
     21 H2          3.1512   -2.9228    0.5739 H         1 <0>         0.4285
     22 C14         1.3339   -2.0157    0.1650 C.2       1 <0>         0.2897
     23 O1          1.5935   -0.7079    0.3939 O.3       1 <0>        -0.4517
     24 S1          1.3232   -0.4180    5.5697 S.o2      1 <0>         2.7010
     25 O2          1.1365    0.9340    5.9653 O.2       1 <0>        -0.9540
     26 O3          0.9387   -1.5121    6.3908 O.2       1 <0>        -0.9551
     27 N7          2.9399   -0.6022    5.2622 N.pl3     1 <0>        -1.2490
     28 H3         -0.9437   -3.0163    2.1383 H         1 <0>         0.1388
     29 H4          0.2367   -2.7274    4.2763 H         1 <0>         0.1538
     30 H5          0.5748    1.4631    3.5478 H         1 <0>         0.1599
     31 H6         -0.6078    1.1990    1.4078 H         1 <0>         0.1544
     32 H7          3.1501   -5.7446    0.2224 H         1 <0>         0.1462
     33 H8          1.7088   -7.5915   -0.4185 H         1 <0>         0.1531
     34 H9          1.5307   -0.4514    1.3241 H         1 <0>         0.3927
     35 H10         3.2443   -0.7839    4.3593 H         1 <0>         0.4141
     36 H11         3.5825   -0.5284    5.9850 H         1 <0>         0.4245
@<TRIPOS>BOND
     1    1    6 ar
     2    1    2 ar
     3    1   28 1
     4    2    3 ar
     5    2   29 1
     6    3    4 ar
     7    3   24 1
     8    4    5 ar
     9    4   30 1
    10    5    6 ar
    11    5   31 1
    12    6    7 1
    13    7    8 2
    14    8    9 1
    15    9   22 2
    16    9   10 1
    17   10   15 ar
    18   10   11 ar
    19   11   12 ar
    20   11   20 1
    21   12   13 ar
    22   12   32 1
    23   13   14 ar
    24   13   33 1
    25   14   15 ar
    26   14   18 1
    27   15   16 1
    28   16   19 1
    29   16   17 1
    30   17   18 2
    31   20   21 1
    32   20   22 1
    33   22   23 1
    34   23   34 1
    35   24   25 2
    36   24   26 2
    37   24   27 1
    38   27   35 1
    39   27   36 1
@<TRIPOS>MOLECULE
CHEMBL424469
   36    39     0     0     0
SMALL
USER_CHARGES

@<TRIPOS>ATOM
      1 C1         -0.6097   -2.0265    2.4524 C.ar      1 <0>        -0.1363
      2 C2          0.0595   -1.8554    3.6461 C.ar      1 <0>        -0.0090
      3 C3          0.4864   -0.5962    4.0296 C.ar      1 <0>        -0.6788
      4 C4          0.2454    0.4999    3.2199 C.ar      1 <0>        -0.0176
      5 C5         -0.4227    0.3439    2.0234 C.ar      1 <0>        -0.1150
      6 C6         -0.8563   -0.9245    1.6295 C.ar      1 <0>         0.0588
      7 N1         -1.5193   -1.0867    0.4443 N.2       1 <0>        -0.1534
      8 N2         -1.0220   -1.8429   -0.4748 N.2       1 <0>        -0.0449
      9 C7          0.1132   -2.5341   -0.2390 C.2       1 <0>        -0.1072
     10 C8          0.3042   -3.9880   -0.3658 C.ar      1 <0>         0.0139
     11 C9          1.6344   -4.2414   -0.0202 C.ar      1 <0>         0.0817
     12 C10         2.1196   -5.5506   -0.0451 C.ar      1 <0>        -0.0522
     13 C11         1.3077   -6.5859   -0.4042 C.ar      1 <0>        -0.0943
     14 C12        -0.0226   -6.3579   -0.7531 C.ar      1 <0>         0.0861
     15 C13        -0.5417   -5.0541   -0.7383 C.ar      1 <0>         0.0294
     16 N3         -1.8320   -5.1222   -1.1121 N.2       1 <0>        -0.2017
     17 N4         -2.1640   -6.3403   -1.3574 N.2       1 <0>        -0.0060
     18 N5         -1.0561   -7.1747   -1.1475 N.pl3     1 <0>        -0.4839
     19 H1         -1.0251   -8.1378   -1.2589 H         1 <0>         0.4506
     20 N6          2.2280   -3.0314    0.2987 N.pl3     1 <0>        -0.5584
     21 H2          3.1519   -2.9236    0.5738 H         1 <0>         0.4266
     22 C14         1.3350   -2.0155    0.1656 C.2       1 <0>         0.2941
     23 O1          1.5948   -0.7079    0.3946 O.3       1 <0>        -0.4520
     24 S1          1.3406   -0.3873    5.5565 S.o2      1 <0>         2.7013
     25 O2          1.1543    0.9670    5.9441 O.2       1 <0>        -0.9551
     26 O3          0.9610   -1.4764    6.3865 O.2       1 <0>        -0.9568
     27 N7          2.9562   -0.5718    5.2429 N.pl3     1 <0>        -1.2495
     28 H3         -0.9384   -3.0105    2.1522 H         1 <0>         0.1397
     29 H4          0.2505   -2.7062    4.2834 H         1 <0>         0.1518
     30 H5          0.5808    1.4798    3.5259 H         1 <0>         0.1587
     31 H6         -0.6104    1.2002    1.3927 H         1 <0>         0.1540
     32 H7          3.1478   -5.7451    0.2222 H         1 <0>         0.1474
     33 H8          1.6994   -7.5923   -0.4189 H         1 <0>         0.1473
     34 H9          1.5318   -0.4514    1.3248 H         1 <0>         0.3931
     35 H10         3.2567   -0.7591    4.3399 H         1 <0>         0.4140
     36 H11         3.6020   -0.4927    5.9623 H         1 <0>         0.4238
@<TRIPOS>BOND
     1    1    6 ar
     2    1    2 ar
     3    1   28 1
     4    2    3 ar
     5    2   29 1
     6    3    4 ar
     7    3   24 1
     8    4    5 ar
     9    4   30 1
    10    5    6 ar
    11    5   31 1
    12    6    7 1
    13    7    8 2
    14    8    9 1
    15    9   22 2
    16    9   10 1
    17   10   15 ar
    18   10   11 ar
    19   11   12 ar
    20   11   20 1
    21   12   13 ar
    22   12   32 1
    23   13   14 ar
    24   13   33 1
    25   14   18 1
    26   14   15 ar
    27   15   16 1
    28   16   17 2
    29   17   18 1
    30   18   19 1
    31   20   21 1
    32   20   22 1
    33   22   23 1
    34   23   34 1
    35   24   25 2
    36   24   26 2
    37   24   27 1
    38   27   35 1
    39   27   36 1
@<TRIPOS>MOLECULE
CHEMBL424469
   36    39     0     0     0
SMALL
USER_CHARGES

@<TRIPOS>ATOM
      1 C1         -0.0169    1.3930    0.0097 C.ar      1 <0>        -0.0969
      2 C2          1.1700    2.0954    0.0021 C.ar      1 <0>        -0.0178
      3 C3          2.3776    1.4198   -0.0135 C.ar      1 <0>        -0.6723
      4 C4          2.4041    0.0363   -0.0212 C.ar      1 <0>        -0.0157
      5 C5          1.2251   -0.6794   -0.0133 C.ar      1 <0>        -0.1399
      6 C6          0.0021   -0.0041    0.0020 C.ar      1 <0>         0.1291
      7 N1         -1.1711   -0.7072    0.0099 N.2       1 <0>        -0.2657
      8 N2         -1.1500   -1.9970    0.0028 N.2       1 <0>        -0.1335
      9 C7         -2.3084   -2.6913    0.0105 C.2       1 <0>        -0.0252
     10 C8         -2.4608   -4.1528    0.0101 C.ar      1 <0>         0.0014
     11 C9         -3.8315   -4.4074    0.0199 C.ar      1 <0>         0.0916
     12 C10        -4.2972   -5.7320    0.0220 C.ar      1 <0>        -0.0787
     13 C11        -3.4491   -6.7870    0.0151 C.ar      1 <0>        -0.0426
     14 C12        -2.0524   -6.5975    0.0051 C.ar      1 <0>         0.0276
     15 C13        -1.5270   -5.2726    0.0017 C.ar      1 <0>         0.0751
     16 N3         -0.2142   -5.4113   -0.0084 N.2       1 <0>        -0.2550
     17 N4          0.0690   -6.6677   -0.0123 N.pl3     1 <0>        -0.2041
     18 N5         -0.9946   -7.3939   -0.0036 N.2       1 <0>        -0.2638
     19 H1          0.9715   -7.0230   -0.0196 H         1 <0>         0.4764
     20 N6         -4.4882   -3.1898    0.0260 N.pl3     1 <0>        -0.5488
     21 H2         -5.4521   -3.0815    0.0337 H         1 <0>         0.4267
     22 C14        -3.5942   -2.1674    0.0266 C.2       1 <0>         0.3195
     23 O1         -3.9061   -0.8509    0.0380 O.3       1 <0>        -0.4397
     24 S1          3.8889    2.3257   -0.0242 S.o2      1 <0>         2.7021
     25 O2          4.8718    1.4691   -0.5893 O.2       1 <0>        -0.9627
     26 O3          3.5915    3.6054   -0.5656 O.2       1 <0>        -0.9624
     27 N7          4.3249    2.5694    1.5547 N.pl3     1 <0>        -1.2499
     28 H3         -0.9586    1.9215    0.0260 H         1 <0>         0.1448
     29 H4          1.1569    3.1753    0.0081 H         1 <0>         0.1504
     30 H5          3.3502   -0.4844   -0.0337 H         1 <0>         0.1453
     31 H6          1.2472   -1.7591   -0.0197 H         1 <0>         0.1470
     32 H7         -5.3617   -5.9142    0.0296 H         1 <0>         0.1435
     33 H8         -3.8491   -7.7902    0.0177 H         1 <0>         0.1477
     34 H9         -4.0055   -0.4627   -0.8420 H         1 <0>         0.4082
     35 H10         3.7668    2.2270    2.2703 H         1 <0>         0.4171
     36 H11         5.1384    3.0546    1.7638 H         1 <0>         0.4213
@<TRIPOS>BOND
     1    1    6 ar
     2    1    2 ar
     3    1   28 1
     4    2    3 ar
     5    2   29 1
     6    3    4 ar
     7    3   24 1
     8    4    5 ar
     9    4   30 1
    10    5    6 ar
    11    5   31 1
    12    6    7 1
    13    7    8 2
    14    8    9 1
    15    9   22 2
    16    9   10 1
    17   10   15 ar
    18   10   11 ar
    19   11   12 ar
    20   11   20 1
    21   12   13 ar
    22   12   32 1
    23   13   14 ar
    24   13   33 1
    25   14   15 ar
    26   14   18 2
    27   15   16 2
    28   16   17 1
    29   17   19 1
    30   17   18 1
    31   20   21 1
    32   20   22 1
    33   22   23 1
    34   23   34 1
    35   24   25 2
    36   24   26 2
    37   24   27 1
    38   27   35 1
    39   27   36 1
@<TRIPOS>MOLECULE
CHEMBL424469
   36    39     0     0     0
SMALL
USER_CHARGES

@<TRIPOS>ATOM
      1 C1         -0.0169    1.3930    0.0097 C.ar      1 <0>        -0.0943
      2 C2          1.1700    2.0954    0.0021 C.ar      1 <0>        -0.0157
      3 C3          2.3776    1.4198   -0.0130 C.ar      1 <0>        -0.6702
      4 C4          2.4041    0.0363   -0.0207 C.ar      1 <0>        -0.0148
      5 C5          1.2251   -0.6794   -0.0133 C.ar      1 <0>        -0.1421
      6 C6          0.0021   -0.0041    0.0020 C.ar      1 <0>         0.1259
      7 N1         -1.1710   -0.7072    0.0099 N.2       1 <0>        -0.2577
      8 N2         -1.1500   -1.9970    0.0028 N.2       1 <0>        -0.1550
      9 C7         -2.3073   -2.6907    0.0105 C.2       1 <0>        -0.0334
     10 C8         -2.4597   -4.1568    0.0101 C.ar      1 <0>        -0.0558
     11 C9         -3.8365   -4.4071    0.0200 C.ar      1 <0>         0.1373
     12 C10        -4.2990   -5.7257    0.0227 C.ar      1 <0>        -0.1192
     13 C11        -3.4269   -6.7697    0.0163 C.ar      1 <0>        -0.0120
     14 C12        -2.0397   -6.5436    0.0069 C.ar      1 <0>        -0.0218
     15 C13        -1.5559   -5.2268    0.0024 C.ar      1 <0>         0.1422
     16 N3         -0.1867   -5.3223   -0.0082 N.pl3     1 <0>        -0.4781
     17 N4          0.1173   -6.6916   -0.0120 N.2       1 <0>        -0.0080
     18 N5         -0.9752   -7.3703   -0.0009 N.2       1 <0>        -0.2076
     19 H1          0.4462   -4.5872   -0.0126 H         1 <0>         0.4507
     20 N6         -4.4894   -3.1875    0.0260 N.pl3     1 <0>        -0.5591
     21 H2         -5.4530   -3.0761    0.0337 H         1 <0>         0.4288
     22 C14        -3.5912   -2.1670    0.0266 C.2       1 <0>         0.3355
     23 O1         -3.9007   -0.8501    0.0373 O.3       1 <0>        -0.4398
     24 S1          3.8889    2.3257   -0.0232 S.o2      1 <0>         2.7019
     25 O2          4.8721    1.4691   -0.5879 O.2       1 <0>        -0.9612
     26 O3          3.5917    3.6054   -0.5647 O.2       1 <0>        -0.9609
     27 N7          4.3243    2.5694    1.5559 N.pl3     1 <0>        -1.2496
     28 H3         -0.9586    1.9215    0.0260 H         1 <0>         0.1460
     29 H4          1.1569    3.1753    0.0077 H         1 <0>         0.1520
     30 H5          3.3503   -0.4844   -0.0329 H         1 <0>         0.1469
     31 H6          1.2473   -1.7591   -0.0197 H         1 <0>         0.1405
     32 H7         -5.3617   -5.9182    0.0303 H         1 <0>         0.1462
     33 H8         -3.8040   -7.7818    0.0189 H         1 <0>         0.1526
     34 H9         -3.9996   -0.4621   -0.8429 H         1 <0>         0.4106
     35 H10         3.7659    2.2270    2.2713 H         1 <0>         0.4171
     36 H11         5.1377    3.0546    1.7654 H         1 <0>         0.4221
@<TRIPOS>BOND
     1    1    6 ar
     2    1    2 ar
     3    1   28 1
     4    2    3 ar
     5    2   29 1
     6    3    4 ar
     7    3   24 1
     8    4    5 ar
     9    4   30 1
    10    5    6 ar
    11    5   31 1
    12    6    7 1
    13    7    8 2
    14    8    9 1
    15    9   22 2
    16    9   10 1
    17   10   15 ar
    18   10   11 ar
    19   11   12 ar
    20   11   20 1
    21   12   13 ar
    22   12   32 1
    23   13   14 ar
    24   13   33 1
    25   14   15 ar
    26   14   18 1
    27   15   16 1
    28   16   19 1
    29   16   17 1
    30   17   18 2
    31   20   21 1
    32   20   22 1
    33   22   23 1
    34   23   34 1
    35   24   25 2
    36   24   26 2
    37   24   27 1
    38   27   35 1
    39   27   36 1
@<TRIPOS>MOLECULE
CHEMBL424469
   36    39     0     0     0
SMALL
USER_CHARGES

@<TRIPOS>ATOM
      1 C1         -0.0169    1.3930    0.0097 C.ar      1 <0>        -0.0979
      2 C2          1.1700    2.0954    0.0021 C.ar      1 <0>        -0.0185
      3 C3          2.3776    1.4198   -0.0130 C.ar      1 <0>        -0.6726
      4 C4          2.4041    0.0363   -0.0212 C.ar      1 <0>        -0.0151
      5 C5          1.2251   -0.6794   -0.0137 C.ar      1 <0>        -0.1390
      6 C6          0.0021   -0.0041    0.0020 C.ar      1 <0>         0.1294
      7 N1         -1.1711   -0.7072    0.0094 N.2       1 <0>        -0.2689
      8 N2         -1.1500   -1.9970    0.0023 N.2       1 <0>        -0.1298
      9 C7         -2.3078   -2.6909    0.0096 C.2       1 <0>        -0.0357
     10 C8         -2.4599   -4.1549    0.0092 C.ar      1 <0>         0.0247
     11 C9         -3.8344   -4.4074    0.0184 C.ar      1 <0>         0.0723
     12 C10        -4.2969   -5.7250    0.0199 C.ar      1 <0>        -0.0488
     13 C11        -3.4200   -6.7694    0.0127 C.ar      1 <0>        -0.0992
     14 C12        -2.0445   -6.5425    0.0034 C.ar      1 <0>         0.0874
     15 C13        -1.5466   -5.2304    0.0017 C.ar      1 <0>         0.0309
     16 N3         -0.2034   -5.3015   -0.0083 N.2       1 <0>        -0.1992
     17 N4          0.1805   -6.5291   -0.0126 N.2       1 <0>        -0.0084
     18 N5         -0.9442   -7.3673   -0.0054 N.pl3     1 <0>        -0.4863
     19 H1         -0.9456   -8.3373   -0.0061 H         1 <0>         0.4502
     20 N6         -4.4900   -3.1874    0.0243 N.pl3     1 <0>        -0.5589
     21 H2         -5.4537   -3.0770    0.0314 H         1 <0>         0.4266
     22 C14        -3.5926   -2.1668    0.0252 C.2       1 <0>         0.3389
     23 O1         -3.9023   -0.8501    0.0358 O.3       1 <0>        -0.4401
     24 S1          3.8889    2.3256   -0.0226 S.o2      1 <0>         2.7020
     25 O2          4.8722    1.4692   -0.5874 O.2       1 <0>        -0.9623
     26 O3          3.5919    3.6055   -0.5637 O.2       1 <0>        -0.9631
     27 N7          4.3240    2.5689    1.5566 N.pl3     1 <0>        -1.2500
     28 H3         -0.9586    1.9215    0.0260 H         1 <0>         0.1440
     29 H4          1.1569    3.1753    0.0077 H         1 <0>         0.1498
     30 H5          3.3502   -0.4844   -0.0337 H         1 <0>         0.1460
     31 H6          1.2472   -1.7591   -0.0205 H         1 <0>         0.1492
     32 H7         -5.3594   -5.9188    0.0271 H         1 <0>         0.1471
     33 H8         -3.7948   -7.7823    0.0147 H         1 <0>         0.1466
     34 H9         -4.0010   -0.4621   -0.8444 H         1 <0>         0.4106
     35 H10         3.7655    2.2262    2.2719 H         1 <0>         0.4171
     36 H11         5.1374    3.0540    1.7664 H         1 <0>         0.4211
@<TRIPOS>BOND
     1    1    6 ar
     2    1    2 ar
     3    1   28 1
     4    2    3 ar
     5    2   29 1
     6    3    4 ar
     7    3   24 1
     8    4    5 ar
     9    4   30 1
    10    5    6 ar
    11    5   31 1
    12    6    7 1
    13    7    8 2
    14    8    9 1
    15    9   22 2
    16    9   10 1
    17   10   15 ar
    18   10   11 ar
    19   11   12 ar
    20   11   20 1
    21   12   13 ar
    22   12   32 1
    23   13   14 ar
    24   13   33 1
    25   14   18 1
    26   14   15 ar
    27   15   16 1
    28   16   17 2
    29   17   18 1
    30   18   19 1
    31   20   21 1
    32   20   22 1
    33   22   23 1
    34   23   34 1
    35   24   25 2
    36   24   26 2
    37   24   27 1
    38   27   35 1
    39   27   36 1
@<TRIPOS>MOLECULE
CHEMBL150859
   38    41     0     0     0
SMALL
USER_CHARGES

@<TRIPOS>ATOM
      1 C1         -0.0219    1.4909   -0.0103 C.3       1 <0>        -0.0708
      2 C2         -0.0087   -0.0160   -0.0176 C.2       1 <0>        -0.1723
      3 C3         -1.0576   -0.8643   -0.0080 C.2       1 <0>        -0.1324
      4 C4         -0.7275   -2.2683   -0.0196 C.2       1 <0>        -0.1256
      5 C5          0.6094   -2.5936   -0.0391 C.2       1 <0>        -0.1604
      6 S1          1.3942   -1.1106   -0.0486 S.3       1 <0>         0.1893
      7 C6          1.2274   -3.9680   -0.0539 C.3       1 <0>        -0.0775
      8 C7         -1.7732   -3.3061   -0.0106 C.2       1 <0>         0.2621
      9 C8         -2.0156   -4.2238    1.0045 C.2       1 <0>        -0.3314
     10 C9         -3.1472   -5.0449    0.5637 C.2       1 <0>         0.1267
     11 N1         -3.5076   -4.6102   -0.6180 N.2       1 <0>        -0.2362
     12 N2         -2.6877   -3.5418   -0.9941 N.pl3     1 <0>        -0.4637
     13 H1         -2.7571   -3.0472   -1.8256 H         1 <0>         0.4480
     14 C10        -3.4244   -6.0344    1.6341 C.ar      1 <0>         0.0425
     15 C11        -4.3756   -7.0419    1.7359 C.ar      1 <0>        -0.1103
     16 C12        -4.4241   -7.8444    2.8634 C.ar      1 <0>        -0.0614
     17 C13        -3.5302   -7.6548    3.8975 C.ar      1 <0>        -0.1318
     18 C14        -2.5693   -6.6525    3.8178 C.ar      1 <0>         0.2452
     19 C15        -2.5097   -5.8339    2.6826 C.ar      1 <0>        -0.1976
     20 C16        -1.6148   -4.7139    2.3280 C.2       1 <0>         0.4923
     21 O1         -0.7078   -4.2759    3.0111 O.2       1 <0>        -0.4477
     22 N3         -1.6695   -6.4631    4.8633 N.am      1 <0>        -0.6766
     23 C17        -1.3717   -7.4854    5.6896 C.2       1 <0>         0.7080
     24 O2         -1.8079   -8.5973    5.4628 O.2       1 <0>        -0.5704
     25 N4         -0.5904   -7.2750    6.7675 N.am      1 <0>        -0.8560
     26 H2          1.0024    1.8632   -0.0272 H         1 <0>         0.0750
     27 H3         -0.5549    1.8538   -0.8892 H         1 <0>         0.0810
     28 H4         -0.5226    1.8456    0.8905 H         1 <0>         0.0817
     29 H5         -2.0793   -0.5145    0.0077 H         1 <0>         0.1416
     30 H6          1.3626   -4.2944   -1.0851 H         1 <0>         0.0818
     31 H7          2.1949   -3.9367    0.4472 H         1 <0>         0.0812
     32 H8          0.5716   -4.6668    0.4653 H         1 <0>         0.0809
     33 H9         -5.0803   -7.1995    0.9327 H         1 <0>         0.1379
     34 H10        -5.1675   -8.6247    2.9341 H         1 <0>         0.1428
     35 H11        -3.5773   -8.2867    4.7721 H         1 <0>         0.1622
     36 H12        -1.2569   -5.5955    4.9969 H         1 <0>         0.4181
     37 H13        -0.2424   -6.3878    6.9485 H         1 <0>         0.4021
     38 H14        -0.3761   -8.0107    7.3622 H         1 <0>         0.4217
@<TRIPOS>BOND
     1    1    2 1
     2    1   26 1
     3    1   27 1
     4    1   28 1
     5    2    6 1
     6    2    3 2
     7    3    4 1
     8    3   29 1
     9    4    5 2
    10    4    8 1
    11    5    6 1
    12    5    7 1
    13    7   30 1
    14    7   31 1
    15    7   32 1
    16    8   12 1
    17    8    9 2
    18    9   20 1
    19    9   10 1
    20   10   11 2
    21   10   14 1
    22   11   12 1
    23   12   13 1
    24   14   19 ar
    25   14   15 ar
    26   15   16 ar
    27   15   33 1
    28   16   17 ar
    29   16   34 1
    30   17   18 ar
    31   17   35 1
    32   18   19 ar
    33   18   22 1
    34   19   20 1
    35   20   21 2
    36   22   23 am
    37   22   36 1
    38   23   24 2
    39   23   25 am
    40   25   37 1
    41   25   38 1
@<TRIPOS>MOLECULE
CHEMBL150859
   38    41     0     0     0
SMALL
USER_CHARGES

@<TRIPOS>ATOM
      1 C1         -0.0102    1.4743    0.0366 C.3       1 <0>        -0.0685
      2 C2          0.0042   -0.0325    0.0151 C.2       1 <0>        -0.1436
      3 C3         -1.0401   -0.8905    0.0060 C.2       1 <0>        -0.1486
      4 C4         -0.7895   -2.2600   -0.0151 C.2       1 <0>        -0.0748
      5 C5          0.5113   -2.6842   -0.0258 C.2       1 <0>        -0.1034
      6 S1          1.4043   -1.1387   -0.0129 S.3       1 <0>         0.0466
      7 C6          1.0502   -4.0913   -0.0478 C.3       1 <0>        -0.0759
      8 C7         -1.9052   -3.2349   -0.0252 C.2       1 <0>         0.2166
      9 C8         -3.2855   -2.9218   -0.0158 C.2       1 <0>        -0.3163
     10 C9         -3.9812   -4.1244   -0.0312 C.2       1 <0>         0.1607
     11 N1         -3.0662   -5.1170   -0.0489 N.pl3     1 <0>        -0.4242
     12 N2         -1.7885   -4.5467   -0.0502 N.2       1 <0>        -0.2744
     13 H1         -3.2619   -6.0669   -0.0620 H         1 <0>         0.4469
     14 C10        -5.4355   -3.8372   -0.0219 C.ar      1 <0>         0.0123
     15 C11        -6.5465   -4.6679   -0.0299 C.ar      1 <0>        -0.1115
     16 C12        -7.8246   -4.1245   -0.0171 C.ar      1 <0>        -0.0633
     17 C13        -8.0054   -2.7595    0.0032 C.ar      1 <0>        -0.1258
     18 C14        -6.9006   -1.9052    0.0111 C.ar      1 <0>         0.2514
     19 C15        -5.6133   -2.4412   -0.0007 C.ar      1 <0>        -0.1982
     20 C16        -4.2692   -1.8212    0.0038 C.2       1 <0>         0.4890
     21 O1         -4.0222   -0.6314    0.0201 O.2       1 <0>        -0.4381
     22 N3         -7.0833   -0.5264    0.0307 N.am      1 <0>        -0.6762
     23 C17        -8.2204   -0.0044    0.5319 C.2       1 <0>         0.7084
     24 O2         -9.0412   -0.7296    1.0595 O.2       1 <0>        -0.5699
     25 N4         -8.4474    1.3214    0.4482 N.am      1 <0>        -0.8546
     26 H2          1.0139    1.8475    0.0334 H         1 <0>         0.0722
     27 H3         -0.5349    1.8453   -0.8438 H         1 <0>         0.0811
     28 H4         -0.5201    1.8200    0.9359 H         1 <0>         0.0812
     29 H5         -2.0542   -0.5193    0.0153 H         1 <0>         0.1602
     30 H6          1.1765   -4.4160   -1.0806 H         1 <0>         0.0822
     31 H7          2.0131   -4.1196    0.4622 H         1 <0>         0.0740
     32 H8          0.3509   -4.7562    0.4592 H         1 <0>         0.0967
     33 H9         -6.4172   -5.7400   -0.0465 H         1 <0>         0.1355
     34 H10        -8.6843   -4.7783   -0.0235 H         1 <0>         0.1440
     35 H11        -9.0041   -2.3486    0.0127 H         1 <0>         0.1638
     36 H12        -6.3925    0.0594   -0.3164 H         1 <0>         0.4191
     37 H13        -7.7924    1.9000    0.0273 H         1 <0>         0.4028
     38 H14        -9.2657    1.6971    0.8090 H         1 <0>         0.4225
@<TRIPOS>BOND
     1    1    2 1
     2    1   26 1
     3    1   27 1
     4    1   28 1
     5    2    6 1
     6    2    3 2
     7    3    4 1
     8    3   29 1
     9    4    5 2
    10    4    8 1
    11    5    6 1
    12    5    7 1
    13    7   30 1
    14    7   31 1
    15    7   32 1
    16    8    9 1
    17    8   12 2
    18    9   20 1
    19    9   10 2
    20   10   14 1
    21   10   11 1
    22   11   13 1
    23   11   12 1
    24   14   19 ar
    25   14   15 ar
    26   15   16 ar
    27   15   33 1
    28   16   17 ar
    29   16   34 1
    30   17   18 ar
    31   17   35 1
    32   18   19 ar
    33   18   22 1
    34   19   20 1
    35   20   21 2
    36   22   23 am
    37   22   36 1
    38   23   24 2
    39   23   25 am
    40   25   37 1
    41   25   38 1
@<TRIPOS>MOLECULE
CHEMBL312657
   36    38     0     0     0
SMALL
USER_CHARGES

@<TRIPOS>ATOM
      1 C1         -0.0692    1.4905   -0.0469 C.3       1 <0>        -0.1521
      2 C2         -0.0411   -0.0392   -0.0403 C.3       1 <0>        -0.1211
      3 C3          0.7092   -0.5301    1.1995 C.3       1 <0>        -0.1178
      4 C4          0.7374   -2.0598    1.2061 C.3       1 <0>         0.0795
      5 O1          1.4381   -2.5183    2.3640 O.3       1 <0>        -0.3176
      6 C5          1.5539   -3.8576    2.5219 C.ar      1 <0>         0.2978
      7 C6          0.5816   -4.5925    3.2193 C.ar      1 <0>        -0.2921
      8 C7          0.7446   -5.9772    3.3572 C.ar      1 <0>         0.2338
      9 N1          1.7832   -6.5976    2.8496 N.ar      1 <0>        -0.5115
     10 C8          2.7345   -5.9510    2.1795 C.ar      1 <0>         0.3540
     11 N2          3.8870   -6.3560    1.5684 N.pl3     1 <0>        -0.4845
     12 N3          4.5254   -5.2472    1.0048 N.2       1 <0>        -0.2324
     13 C9          3.8309   -4.1689    1.2321 C.2       1 <0>         0.1116
     14 C10         2.6471   -4.5588    1.9890 C.ar      1 <0>        -0.2676
     15 C11        -0.5935   -3.9167    3.7986 C.2       1 <0>         0.4892
     16 O2         -0.6752   -2.7021    3.7654 O.2       1 <0>        -0.4179
     17 C12        -1.6638   -4.7067    4.4144 C.2       1 <0>        -0.1030
     18 C13        -2.8477   -4.2198    4.8939 C.2       1 <0>        -0.1113
     19 C14        -3.5641   -5.3189    5.3907 C.2       1 <0>        -0.2261
     20 C15        -2.7971   -6.4151    5.1958 C.2       1 <0>         0.0034
     21 O3         -1.6556   -6.0427    4.6021 O.3       1 <0>        -0.1635
     22 H1          0.9515    1.8727   -0.0649 H         1 <0>         0.0562
     23 H2         -0.6037    1.8403   -0.9301 H         1 <0>         0.0570
     24 H3         -0.5754    1.8485    0.8496 H         1 <0>         0.0568
     25 H4         -1.0617   -0.4213   -0.0223 H         1 <0>         0.0644
     26 H5          0.4652   -0.3971   -0.9368 H         1 <0>         0.0639
     27 H6          1.7299   -0.1480    1.1815 H         1 <0>         0.0745
     28 H7          0.2030   -0.1721    2.0960 H         1 <0>         0.0799
     29 H8         -0.2833   -2.4419    1.2241 H         1 <0>         0.0586
     30 H9          1.2436   -2.4178    0.3096 H         1 <0>         0.0576
     31 H10        -0.0007   -6.5461    3.8931 H         1 <0>         0.1886
     32 H11         4.0841   -3.1682    0.9144 H         1 <0>         0.2071
     33 H12        -3.1691   -3.1887    4.8914 H         1 <0>         0.1615
     34 H13        -4.5441   -5.2940    5.8440 H         1 <0>         0.1594
     35 H14        -3.0629   -7.4254    5.4699 H         1 <0>         0.2142
     36 H15         4.2115   -7.2694    1.5313 H         1 <0>         0.4496
@<TRIPOS>BOND
     1    1    2 1
     2    1   22 1
     3    1   23 1
     4    1   24 1
     5    2    3 1
     6    2   25 1
     7    2   26 1
     8    3    4 1
     9    3   27 1
    10    3   28 1
    11    4    5 1
    12    4   29 1
    13    4   30 1
    14    5    6 1
    15    6   14 ar
    16    6    7 ar
    17    7    8 ar
    18    7   15 1
    19    8    9 ar
    20    8   31 1
    21    9   10 ar
    22   10   14 ar
    23   10   11 1
    24   11   36 1
    25   11   12 1
    26   12   13 2
    27   13   32 1
    28   13   14 1
    29   15   16 2
    30   15   17 1
    31   17   21 1
    32   17   18 2
    33   18   19 1
    34   18   33 1
    35   19   20 2
    36   19   34 1
    37   20   21 1
    38   20   35 1
@<TRIPOS>MOLECULE
CHEMBL312657
   36    38     0     0     0
SMALL
USER_CHARGES

@<TRIPOS>ATOM
      1 C1         -0.0742    1.4873   -0.0520 C.3       1 <0>        -0.1521
      2 C2         -0.0454   -0.0424   -0.0440 C.3       1 <0>        -0.1212
      3 C3          0.7060   -0.5319    1.1956 C.3       1 <0>        -0.1177
      4 C4          0.7348   -2.0616    1.2036 C.3       1 <0>         0.0805
      5 O1          1.4366   -2.5187    2.3614 O.3       1 <0>        -0.3211
      6 C5          1.5529   -3.8562    2.5203 C.ar      1 <0>         0.3142
      7 C6          0.5848   -4.5892    3.2168 C.ar      1 <0>        -0.3005
      8 C7          0.7294   -5.9801    3.3681 C.ar      1 <0>         0.2414
      9 N1          1.7464   -6.6360    2.8791 N.ar      1 <0>        -0.4789
     10 C8          2.7265   -6.0171    2.1949 C.ar      1 <0>         0.2996
     11 N2          3.8356   -6.4261    1.6103 N.2       1 <0>        -0.2834
     12 N3          4.4856   -5.3266    1.0398 N.pl3     1 <0>        -0.4072
     13 C9          3.7811   -4.2113    1.2656 C.2       1 <0>         0.1450
     14 C10         2.6534   -4.5630    1.9837 C.ar      1 <0>        -0.3022
     15 C11        -0.5841   -3.9043    3.7912 C.2       1 <0>         0.4878
     16 O2         -0.6575   -2.6889    3.7532 O.2       1 <0>        -0.4240
     17 C12        -1.6608   -4.6849    4.4092 C.2       1 <0>        -0.1006
     18 C13        -2.8415   -4.1881    4.8854 C.2       1 <0>        -0.1142
     19 C14        -3.5662   -5.2806    5.3859 C.2       1 <0>        -0.2269
     20 C15        -2.8065   -6.3825    5.1962 C.2       1 <0>         0.0026
     21 O3         -1.6618   -6.0200    4.6022 O.3       1 <0>        -0.1615
     22 H1          0.9463    1.8698   -0.0711 H         1 <0>         0.0556
     23 H2         -0.6095    1.8360   -0.9351 H         1 <0>         0.0572
     24 H3         -0.5799    1.8459    0.8446 H         1 <0>         0.0572
     25 H4         -1.0659   -0.4249   -0.0249 H         1 <0>         0.0652
     26 H5          0.4603   -0.4009   -0.9406 H         1 <0>         0.0630
     27 H6          1.7265   -0.1493    1.1765 H         1 <0>         0.0728
     28 H7          0.2003   -0.1733    2.0922 H         1 <0>         0.0809
     29 H8         -0.2857   -2.4441    1.2227 H         1 <0>         0.0603
     30 H9          1.2405   -2.4201    0.3071 H         1 <0>         0.0552
     31 H10        -0.0293   -6.5256    3.9095 H         1 <0>         0.1856
     32 H11         4.0442   -3.2155    0.9410 H         1 <0>         0.2005
     33 H12        -3.1559   -3.1549    4.8782 H         1 <0>         0.1605
     34 H13        -4.5465   -5.2472    5.8378 H         1 <0>         0.1585
     35 H14        -3.0793   -7.3898    5.4741 H         1 <0>         0.2137
     36 H15         5.3235   -5.3665    0.5527 H         1 <0>         0.4540
@<TRIPOS>BOND
     1    1    2 1
     2    1   22 1
     3    1   23 1
     4    1   24 1
     5    2    3 1
     6    2   25 1
     7    2   26 1
     8    3    4 1
     9    3   27 1
    10    3   28 1
    11    4    5 1
    12    4   29 1
    13    4   30 1
    14    5    6 1
    15    6   14 ar
    16    6    7 ar
    17    7    8 ar
    18    7   15 1
    19    8    9 ar
    20    8   31 1
    21    9   10 ar
    22   10   14 ar
    23   10   11 2
    24   11   12 1
    25   12   13 1
    26   12   36 1
    27   13   14 2
    28   13   32 1
    29   15   16 2
    30   15   17 1
    31   17   21 1
    32   17   18 2
    33   18   19 1
    34   18   33 1
    35   19   20 2
    36   19   34 1
    37   20   21 1
    38   20   35 1
@<TRIPOS>MOLECULE
CHEMBL191519
   48    51     0     0     0
SMALL
USER_CHARGES

@<TRIPOS>ATOM
      1 C1         -0.1591    1.6311    0.0235 C.3       1 <0>        -0.1418
      2 C2         -0.0654    0.1055   -0.0444 C.3       1 <0>        -0.0497
      3 C3         -1.4506   -0.4857    0.0067 C.2       1 <0>         0.1701
      4 C4         -2.1475   -0.8503    1.1738 C.2       1 <0>        -0.3337
      5 C5         -3.3962   -1.3564    0.7727 C.2       1 <0>         0.3649
      6 N1         -4.2618   -1.7788    1.7016 N.2       1 <0>        -0.5222
      7 C6         -3.9787   -1.7347    2.9818 C.2       1 <0>         0.4947
      8 N2         -2.7898   -1.2586    3.4602 N.am      1 <0>        -0.6455
      9 C7         -1.8443   -0.8065    2.6038 C.2       1 <0>         0.5823
     10 O1         -0.7785   -0.3780    3.0098 O.2       1 <0>        -0.5076
     11 C8         -4.9859   -2.2189    3.9459 C.ar      1 <0>        -0.0820
     12 C9         -4.6755   -2.2902    5.3062 C.ar      1 <0>        -0.0761
     13 C10        -5.6172   -2.7426    6.2052 C.ar      1 <0>        -0.1775
     14 C11        -6.8750   -3.1281    5.7625 C.ar      1 <0>         0.1391
     15 C12        -7.1914   -3.0595    4.4069 C.ar      1 <0>         0.0949
     16 C13        -6.2539   -2.6015    3.5010 C.ar      1 <0>        -0.1031
     17 O2         -8.4247   -3.4380    3.9765 O.3       1 <0>        -0.3004
     18 C14        -8.6801   -3.3416    2.5738 C.3       1 <0>         0.0224
     19 O3         -7.7996   -3.5737    6.6525 O.3       1 <0>        -0.2980
     20 C15        -7.4086   -3.6188    8.0262 C.3       1 <0>         0.0211
     21 N3         -3.4235   -1.2876   -0.5876 N.pl3     1 <0>        -0.3176
     22 N4         -2.2099   -0.7413   -1.0236 N.2       1 <0>        -0.2492
     23 C16        -4.4851   -1.6902   -1.4092 C.ar      1 <0>         0.1699
     24 C17        -5.7607   -1.1817   -1.1976 C.ar      1 <0>        -0.0073
     25 C18        -6.8057   -1.5807   -2.0095 C.ar      1 <0>        -0.0877
     26 C19        -6.5825   -2.4858   -3.0323 C.ar      1 <0>        -0.0073
     27 C20        -5.3133   -2.9944   -3.2452 C.ar      1 <0>        -0.0882
     28 C21        -4.2630   -2.5944   -2.4405 C.ar      1 <0>        -0.0035
     29 Cl1        -2.6695   -3.2267   -2.7136 Cl        1 <0>        -0.0138
     30 Cl2        -7.8976   -2.9846   -4.0499 Cl        1 <0>        -0.0297
     31 Cl3        -6.0418   -0.0467    0.0856 Cl        1 <0>        -0.0166
     32 H1          0.8428    2.0587   -0.0134 H         1 <0>         0.0685
     33 H2         -0.7418    1.9972   -0.8218 H         1 <0>         0.0570
     34 H3         -0.6452    1.9242    0.9540 H         1 <0>         0.0579
     35 H4          0.4207   -0.1877   -0.9749 H         1 <0>         0.0861
     36 H5          0.5173   -0.2607    0.8009 H         1 <0>         0.0971
     37 H6         -3.6975   -1.9912    5.6533 H         1 <0>         0.1330
     38 H7         -5.3759   -2.7975    7.2564 H         1 <0>         0.1485
     39 H8         -6.4994   -2.5433    2.4508 H         1 <0>         0.1569
     40 H9         -9.6974   -3.6735    2.3661 H         1 <0>         0.1050
     41 H10        -8.5631   -2.3064    2.2535 H         1 <0>         0.0583
     42 H11        -7.9747   -3.9716    2.0319 H         1 <0>         0.0585
     43 H12        -6.5509   -4.2819    8.1383 H         1 <0>         0.0601
     44 H13        -7.1394   -2.6169    8.3605 H         1 <0>         0.0600
     45 H14        -8.2375   -3.9921    8.6278 H         1 <0>         0.1059
     46 H15        -7.7975   -1.1860   -1.8453 H         1 <0>         0.1621
     47 H16        -5.1423   -3.7011   -4.0438 H         1 <0>         0.1622
     48 H17        -2.6234   -1.2448    4.4157 H         1 <0>         0.4223
@<TRIPOS>BOND
     1    1    2 1
     2    1   32 1
     3    1   33 1
     4    1   34 1
     5    2    3 1
     6    2   35 1
     7    2   36 1
     8    3   22 2
     9    3    4 1
    10    4    9 1
    11    4    5 2
    12    5    6 1
    13    5   21 1
    14    6    7 2
    15    7    8 1
    16    7   11 1
    17    8    9 am
    18    8   48 1
    19    9   10 2
    20   11   16 ar
    21   11   12 ar
    22   12   13 ar
    23   12   37 1
    24   13   14 ar
    25   13   38 1
    26   14   15 ar
    27   14   19 1
    28   15   16 ar
    29   15   17 1
    30   16   39 1
    31   17   18 1
    32   18   40 1
    33   18   41 1
    34   18   42 1
    35   19   20 1
    36   20   43 1
    37   20   44 1
    38   20   45 1
    39   21   22 1
    40   21   23 1
    41   23   28 ar
    42   23   24 ar
    43   24   25 ar
    44   24   31 1
    45   25   26 ar
    46   25   46 1
    47   26   27 ar
    48   26   30 1
    49   27   28 ar
    50   27   47 1
    51   28   29 1
@<TRIPOS>MOLECULE
CHEMBL191519
   47    50     0     0     0
SMALL
USER_CHARGES

@<TRIPOS>ATOM
      1 C1          0.0802    1.6304    0.0857 C.3       1 <0>        -0.1345
      2 C2          0.0105    0.1024    0.0531 C.3       1 <0>        -0.0408
      3 C3          0.7407   -0.4593    1.2458 C.2       1 <0>         0.1696
      4 C4          2.1119   -0.7926    1.2910 C.ar      1 <0>        -0.3544
      5 C5          2.3754   -1.2794    2.5884 C.ar      1 <0>         0.3787
      6 N1          3.6105   -1.6661    2.8916 N.ar      1 <0>        -0.6023
      7 C6          4.5782   -1.5959    1.9913 C.ar      1 <0>         0.4284
      8 N2          4.3720   -1.1433    0.7575 N.ar      1 <0>        -0.6205
      9 C7          3.1728   -0.7367    0.3683 C.ar      1 <0>         0.5019
     10 O1          2.9724   -0.2779   -0.8894 O.3       1 <0>        -0.6655
     11 C8          5.9405   -2.0369    2.3715 C.ar      1 <0>        -0.0187
     12 C9          6.2104   -2.4161    3.6863 C.ar      1 <0>        -0.0681
     13 C10         7.4788   -2.8270    4.0394 C.ar      1 <0>        -0.1872
     14 C11         8.4886   -2.8643    3.0889 C.ar      1 <0>         0.1038
     15 C12         8.2250   -2.4867    1.7742 C.ar      1 <0>         0.0835
     16 C13         6.9538   -2.0791    1.4140 C.ar      1 <0>        -0.1213
     17 O2          9.2165   -2.5241    0.8440 O.3       1 <0>        -0.3111
     18 C14         8.8751   -2.1232   -0.4845 C.3       1 <0>         0.0252
     19 O3          9.7371   -3.2694    3.4411 O.3       1 <0>        -0.3086
     20 C15         9.9374   -3.6419    4.8061 C.3       1 <0>         0.0272
     21 N3          1.1921   -1.2283    3.2700 N.pl3     1 <0>        -0.3606
     22 N4          0.2137   -0.7136    2.4101 N.2       1 <0>        -0.2875
     23 C16         0.9931   -1.6188    4.6013 C.ar      1 <0>         0.2115
     24 C17         1.7854   -1.0839    5.6095 C.ar      1 <0>        -0.0168
     25 C18         1.5867   -1.4710    6.9215 C.ar      1 <0>        -0.0877
     26 C19         0.6001   -2.3906    7.2312 C.ar      1 <0>        -0.0244
     27 C20        -0.1906   -2.9251    6.2292 C.ar      1 <0>        -0.0906
     28 C21        -0.0008   -2.5373    4.9161 C.ar      1 <0>        -0.0178
     29 Cl1        -0.9984   -3.2024    3.6607 Cl        1 <0>        -0.0243
     30 Cl2         0.3544   -2.8752    8.8800 Cl        1 <0>        -0.0505
     31 Cl3         3.0240    0.0690    5.2219 Cl        1 <0>        -0.0144
     32 H1          1.1227    1.9473    0.0558 H         1 <0>         0.0607
     33 H2         -0.4479    2.0367   -0.7770 H         1 <0>         0.0569
     34 H3         -0.3845    1.9959    1.0014 H         1 <0>         0.0478
     35 H4         -1.0320   -0.2145    0.0830 H         1 <0>         0.0683
     36 H5          0.4753   -0.2631   -0.8626 H         1 <0>         0.0973
     37 H6          5.4261   -2.3876    4.4281 H         1 <0>         0.1398
     38 H7          7.6863   -3.1200    5.0580 H         1 <0>         0.1339
     39 H8          6.7470   -1.7900    0.3942 H         1 <0>         0.1536
     40 H9          8.0882   -2.7721   -0.8689 H         1 <0>         0.0570
     41 H10         8.5225   -1.0918   -0.4735 H         1 <0>         0.0579
     42 H11         9.7542   -2.1998   -1.1243 H         1 <0>         0.0957
     43 H12         9.7121   -2.7928    5.4513 H         1 <0>         0.0533
     44 H13         9.2783   -4.4732    5.0563 H         1 <0>         0.0534
     45 H14        10.9745   -3.9439    4.9519 H         1 <0>         0.0956
     46 H15         2.2023   -1.0556    7.7057 H         1 <0>         0.1537
     47 H16        -0.9598   -3.6427    6.4739 H         1 <0>         0.1530
@<TRIPOS>BOND
     1    1    2 1
     2    1   32 1
     3    1   33 1
     4    1   34 1
     5    2    3 1
     6    2   35 1
     7    2   36 1
     8    3   22 2
     9    3    4 1
    10    4    9 ar
    11    4    5 ar
    12    5    6 ar
    13    5   21 1
    14    6    7 ar
    15    7    8 ar
    16    7   11 1
    17    8    9 ar
    18    9   10 1
    19   11   16 ar
    20   11   12 ar
    21   12   13 ar
    22   12   37 1
    23   13   14 ar
    24   13   38 1
    25   14   15 ar
    26   14   19 1
    27   15   16 ar
    28   15   17 1
    29   16   39 1
    30   17   18 1
    31   18   40 1
    32   18   41 1
    33   18   42 1
    34   19   20 1
    35   20   43 1
    36   20   44 1
    37   20   45 1
    38   21   22 1
    39   21   23 1
    40   23   28 ar
    41   23   24 ar
    42   24   25 ar
    43   24   31 1
    44   25   26 ar
    45   25   46 1
    46   26   27 ar
    47   26   30 1
    48   27   28 ar
    49   27   47 1
    50   28   29 1
@<TRIPOS>MOLECULE
CHEMBL192556
   51    54     0     0     0
SMALL
USER_CHARGES

@<TRIPOS>ATOM
      1 C1         -0.0032    1.5258    0.0192 C.3       1 <0>        -0.1457
      2 C2          0.0021   -0.0041    0.0020 C.3       1 <0>        -0.0596
      3 C3          0.7074   -0.4901   -1.2379 C.ar      1 <0>        -0.0959
      4 C4          0.2290   -0.1380   -2.4866 C.ar      1 <0>        -0.0542
      5 C5          0.8732   -0.5817   -3.6249 C.ar      1 <0>        -0.1540
      6 C6          2.0028   -1.3820   -3.5143 C.ar      1 <0>         0.1660
      7 C7          2.4809   -1.7335   -2.2588 C.ar      1 <0>        -0.1562
      8 C8          1.8350   -1.2824   -1.1244 C.ar      1 <0>        -0.0798
      9 N1          2.6575   -1.8336   -4.6655 N.am      1 <0>        -0.5524
     10 C9          3.9179   -2.5855   -4.6603 C.3       1 <0>         0.0923
     11 C10         4.0200   -3.2285   -6.0612 C.3       1 <0>        -0.1170
     12 C11         3.1616   -2.2653   -6.9136 C.3       1 <0>        -0.1499
     13 C12         2.2098   -1.6396   -5.9181 C.2       1 <0>         0.5280
     14 O1          1.1922   -1.0468   -6.2080 O.2       1 <0>        -0.4972
     15 C13         2.3949   -3.0296   -7.9619 C.2       1 <0>         0.5375
     16 O2          2.5092   -4.2345   -8.0388 O.2       1 <0>        -0.5333
     17 N2          1.5823   -2.3740   -8.8142 N.am      1 <0>        -0.8404
     18 C14        -1.4170   -0.5113    0.0041 C.2       1 <0>         0.5252
     19 O3         -1.8163   -1.1997   -0.9112 O.2       1 <0>        -0.4970
     20 N3         -2.2424   -0.2000    1.0230 N.am      1 <0>        -0.6362
     21 C15        -3.5622   -0.6717    1.0249 C.2       1 <0>         0.3036
     22 C16        -4.1514   -1.4779    0.0377 C.2       1 <0>        -0.2589
     23 C17        -5.4312   -1.7150    0.4050 C.2       1 <0>         0.1306
     24 N4         -5.6484   -1.0853    1.5789 N.pl3     1 <0>        -0.4675
     25 H1         -6.4799   -1.0822    2.0784 H         1 <0>         0.4389
     26 N5         -4.4616   -0.4419    1.9524 N.2       1 <0>        -0.3190
     27 C18        -6.4363   -2.5362   -0.3607 C.3       1 <0>        -0.0986
     28 C19        -7.9020   -2.1024   -0.2923 C.3       1 <0>        -0.1701
     29 C20        -7.4406   -3.3586    0.4492 C.3       1 <0>        -0.1699
     30 H2          1.0232    1.8927    0.0177 H         1 <0>         0.0764
     31 H3         -0.5231    1.8974   -0.8638 H         1 <0>         0.0662
     32 H4         -0.5134    1.8774    0.9160 H         1 <0>         0.0654
     33 H5          0.5220   -0.3756    0.8850 H         1 <0>         0.1113
     34 H6         -0.6494    0.4844   -2.5719 H         1 <0>         0.1241
     35 H7          0.4987   -0.3070   -4.5999 H         1 <0>         0.1545
     36 H8          3.3589   -2.3560   -2.1695 H         1 <0>         0.1276
     37 H9          2.2088   -1.5520   -0.1476 H         1 <0>         0.1280
     38 H10         4.7582   -1.9119   -4.4923 H         1 <0>         0.0879
     39 H11         3.8931   -3.3579   -3.8916 H         1 <0>         0.0937
     40 H12         5.0527   -3.2426   -6.4096 H         1 <0>         0.1046
     41 H13         3.5960   -4.2326   -6.0614 H         1 <0>         0.1058
     42 H14         3.7891   -1.5043   -7.3775 H         1 <0>         0.1427
     43 H15         1.4909   -1.4103   -8.7528 H         1 <0>         0.4082
     44 H16         1.0888   -2.8659   -9.4890 H         1 <0>         0.4061
     45 H17        -1.9231    0.3506    1.7550 H         1 <0>         0.4158
     46 H18        -3.6683   -1.8436   -0.8563 H         1 <0>         0.1728
     47 H19        -6.0798   -2.9599   -1.2996 H         1 <0>         0.1341
     48 H20        -8.1391   -1.2230    0.3065 H         1 <0>         0.0947
     49 H21        -8.5099   -2.2405   -1.1864 H         1 <0>         0.1079
     50 H22        -7.7451   -4.3232    0.0430 H         1 <0>         0.1079
     51 H23        -7.3742   -3.3057    1.5359 H         1 <0>         0.0948
@<TRIPOS>BOND
     1    1    2 1
     2    1   30 1
     3    1   31 1
     4    1   32 1
     5    2    3 1
     6    2   18 1
     7    2   33 1
     8    3    8 ar
     9    3    4 ar
    10    4    5 ar
    11    4   34 1
    12    5    6 ar
    13    5   35 1
    14    6    7 ar
    15    6    9 1
    16    7    8 ar
    17    7   36 1
    18    8   37 1
    19    9   13 am
    20    9   10 1
    21   10   11 1
    22   10   38 1
    23   10   39 1
    24   11   12 1
    25   11   40 1
    26   11   41 1
    27   12   13 1
    28   12   15 1
    29   12   42 1
    30   13   14 2
    31   15   16 2
    32   15   17 am
    33   17   43 1
    34   17   44 1
    35   18   19 2
    36   18   20 am
    37   20   21 1
    38   20   45 1
    39   21   26 2
    40   21   22 1
    41   22   23 2
    42   22   46 1
    43   23   24 1
    44   23   27 1
    45   24   25 1
    46   24   26 1
    47   27   29 1
    48   27   28 1
    49   27   47 1
    50   28   29 1
    51   28   48 1
    52   28   49 1
    53   29   50 1
    54   29   51 1
@<TRIPOS>MOLECULE
CHEMBL192556
   51    54     0     0     0
SMALL
USER_CHARGES

@<TRIPOS>ATOM
      1 C1         -0.0340    1.5254    0.0195 C.3       1 <0>        -0.1457
      2 C2          0.0021   -0.0041    0.0020 C.3       1 <0>        -0.0576
      3 C3          0.7310   -0.5033    1.2229 C.ar      1 <0>        -0.0990
      4 C4          2.0460   -0.1349    1.4401 C.ar      1 <0>        -0.0542
      5 C5          2.7168   -0.5907    2.5580 C.ar      1 <0>        -0.1537
      6 C6          2.0690   -1.4195    3.4647 C.ar      1 <0>         0.1680
      7 C7          0.7482   -1.7872    3.2440 C.ar      1 <0>        -0.1561
      8 C8          0.0815   -1.3241    2.1266 C.ar      1 <0>        -0.0790
      9 N1          2.7459   -1.8834    4.5981 N.am      1 <0>        -0.5527
     10 C9          2.1233   -2.6666    5.6717 C.3       1 <0>         0.0922
     11 C10         3.2955   -3.3071    6.4477 C.3       1 <0>        -0.1170
     12 C11         4.4476   -2.3197    6.1499 C.3       1 <0>        -0.1498
     13 C12         4.0513   -1.6738    4.8406 C.2       1 <0>         0.5282
     14 O1          4.8018   -1.0546    4.1163 O.2       1 <0>        -0.4967
     15 C13         5.7506   -3.0608    5.9950 C.2       1 <0>         0.5373
     16 O2          5.7788   -4.2680    6.1082 O.2       1 <0>        -0.5329
     17 N2          6.8846   -2.3821    5.7305 N.am      1 <0>        -0.8403
     18 C14         0.7173   -0.4755   -1.2378 C.2       1 <0>         0.5228
     19 O3          1.7203   -1.1505   -1.1397 O.2       1 <0>        -0.4866
     20 N3          0.2426   -0.1471   -2.4557 N.am      1 <0>        -0.6517
     21 C15         0.9045   -0.5835   -3.6032 C.2       1 <0>         0.3067
     22 C16         2.0338   -1.3424   -3.6406 C.2       1 <0>        -0.2696
     23 C17         2.3626   -1.5543   -4.9823 C.2       1 <0>         0.1221
     24 N4          1.4709   -0.9498   -5.7248 N.2       1 <0>        -0.2794
     25 H1         -0.2342    0.1812   -5.1630 H         1 <0>         0.4363
     26 N5          0.5376   -0.3343   -4.8810 N.pl3     1 <0>        -0.4913
     27 C18         3.5428   -2.3437   -5.4874 C.3       1 <0>        -0.0852
     28 C19         4.6679   -2.6451   -4.4954 C.3       1 <0>        -0.1632
     29 C20         4.8824   -1.6141   -5.6053 C.3       1 <0>        -0.1631
     30 H2          0.9848    1.9130    0.0182 H         1 <0>         0.0671
     31 H3         -0.5612    1.8865   -0.8636 H         1 <0>         0.0632
     32 H4         -0.5514    1.8664    0.9162 H         1 <0>         0.0778
     33 H5         -1.0167   -0.3916    0.0033 H         1 <0>         0.1114
     34 H6          2.5492    0.5096    0.7345 H         1 <0>         0.1238
     35 H7          3.7441   -0.3032    2.7267 H         1 <0>         0.1551
     36 H8          0.2418   -2.4319    3.9471 H         1 <0>         0.1282
     37 H9         -0.9470   -1.6064    1.9565 H         1 <0>         0.1279
     38 H10         1.5473   -2.0149    6.3288 H         1 <0>         0.0881
     39 H11         1.4819   -3.4409    5.2506 H         1 <0>         0.0938
     40 H12         3.0813   -3.3460    7.5157 H         1 <0>         0.1048
     41 H13         3.5231   -4.3003    6.0606 H         1 <0>         0.1060
     42 H14         4.5240   -1.5730    6.9403 H         1 <0>         0.1428
     43 H15         6.8620   -1.4166    5.6400 H         1 <0>         0.4081
     44 H16         7.7232   -2.8591    5.6308 H         1 <0>         0.4064
     45 H17        -0.5595    0.3927   -2.5342 H         1 <0>         0.4119
     46 H18         2.5789   -1.7142   -2.7856 H         1 <0>         0.1738
     47 H19         3.3152   -3.1022   -6.2364 H         1 <0>         0.1214
     48 H20         4.5545   -2.2724   -3.4774 H         1 <0>         0.1015
     49 H21         5.1807   -3.6021   -4.5915 H         1 <0>         0.1020
     50 H22         5.5363   -1.8928   -6.4316 H         1 <0>         0.1012
     51 H23         4.9102   -0.5631   -5.3175 H         1 <0>         0.0949
@<TRIPOS>BOND
     1    1    2 1
     2    1   30 1
     3    1   31 1
     4    1   32 1
     5    2    3 1
     6    2   18 1
     7    2   33 1
     8    3    8 ar
     9    3    4 ar
    10    4    5 ar
    11    4   34 1
    12    5    6 ar
    13    5   35 1
    14    6    7 ar
    15    6    9 1
    16    7    8 ar
    17    7   36 1
    18    8   37 1
    19    9   13 am
    20    9   10 1
    21   10   11 1
    22   10   38 1
    23   10   39 1
    24   11   12 1
    25   11   40 1
    26   11   41 1
    27   12   13 1
    28   12   15 1
    29   12   42 1
    30   13   14 2
    31   15   16 2
    32   15   17 am
    33   17   43 1
    34   17   44 1
    35   18   19 2
    36   18   20 am
    37   20   45 1
    38   20   21 1
    39   21   22 2
    40   21   26 1
    41   22   23 1
    42   22   46 1
    43   23   24 2
    44   23   27 1
    45   24   26 1
    46   25   26 1
    47   27   29 1
    48   27   28 1
    49   27   47 1
    50   28   29 1
    51   28   48 1
    52   28   49 1
    53   29   50 1
    54   29   51 1
@<TRIPOS>MOLECULE
CHEMBL192556
   51    54     0     0     0
SMALL
USER_CHARGES

@<TRIPOS>ATOM
      1 C1         -0.0018    1.5258    0.0200 C.3       1 <0>        -0.1461
      2 C2          0.0021   -0.0041    0.0020 C.3       1 <0>        -0.0596
      3 C3          0.7074   -0.4901   -1.2379 C.ar      1 <0>        -0.0958
      4 C4          0.2298   -0.1369   -2.4866 C.ar      1 <0>        -0.0541
      5 C5          0.8740   -0.5806   -3.6248 C.ar      1 <0>        -0.1537
      6 C6          2.0028   -1.3820   -3.5143 C.ar      1 <0>         0.1659
      7 C7          2.4802   -1.7345   -2.2588 C.ar      1 <0>        -0.1558
      8 C8          1.8343   -1.2835   -1.1244 C.ar      1 <0>        -0.0799
      9 N1          2.6575   -1.8336   -4.6655 N.am      1 <0>        -0.5524
     10 C9          3.9179   -2.5855   -4.6603 C.3       1 <0>         0.0923
     11 C10         4.4661   -2.4810   -6.1008 C.3       1 <0>        -0.1163
     12 C11         3.1720   -2.2480   -6.9145 C.3       1 <0>        -0.1504
     13 C12         2.2098   -1.6396   -5.9181 C.2       1 <0>         0.5281
     14 O1          1.1850   -1.0590   -6.2074 O.2       1 <0>        -0.4973
     15 C13         3.4296   -1.2957   -8.0537 C.2       1 <0>         0.5381
     16 O2          4.5387   -0.8335   -8.2188 O.2       1 <0>        -0.5335
     17 N2          2.4275   -0.9577   -8.8892 N.am      1 <0>        -0.8406
     18 C14        -1.4175   -0.5100    0.0033 C.2       1 <0>         0.5256
     19 O3         -1.8171   -1.1976   -0.9125 O.2       1 <0>        -0.4974
     20 N3         -2.2430   -0.1985    1.0221 N.am      1 <0>        -0.6363
     21 C15        -3.5632   -0.6690    1.0233 C.2       1 <0>         0.3038
     22 C16        -4.1527   -1.4741    0.0355 C.2       1 <0>        -0.2590
     23 C17        -5.4328   -1.7103    0.4022 C.2       1 <0>         0.1304
     24 N4         -5.6500   -1.0810    1.5763 N.pl3     1 <0>        -0.4675
     25 H1         -6.4816   -1.0774    2.0756 H         1 <0>         0.4389
     26 N5         -4.4627   -0.4389    1.9506 N.2       1 <0>        -0.3190
     27 C18        -6.4385   -2.5302   -0.3643 C.3       1 <0>        -0.0984
     28 C19        -7.9037   -2.0951   -0.2962 C.3       1 <0>        -0.1702
     29 C20        -7.4438   -3.3521    0.4449 C.3       1 <0>        -0.1700
     30 H2          1.0249    1.8918    0.0191 H         1 <0>         0.0765
     31 H3         -0.5211    1.8983   -0.8630 H         1 <0>         0.0663
     32 H4         -0.5120    1.8774    0.9168 H         1 <0>         0.0655
     33 H5          0.5213   -0.3765    0.8850 H         1 <0>         0.1114
     34 H6         -0.6481    0.4864   -2.5719 H         1 <0>         0.1241
     35 H7          0.5001   -0.3050   -4.5998 H         1 <0>         0.1541
     36 H8          3.3576   -2.3579   -2.1695 H         1 <0>         0.1275
     37 H9          2.2074   -1.5540   -0.1476 H         1 <0>         0.1280
     38 H10         4.6202   -2.1394   -3.9562 H         1 <0>         0.0943
     39 H11         3.7340   -3.6282   -4.4014 H         1 <0>         0.0871
     40 H12         5.1462   -1.6349   -6.1989 H         1 <0>         0.1059
     41 H13         4.9538   -3.4085   -6.4008 H         1 <0>         0.1045
     42 H14         2.7806   -3.1942   -7.2880 H         1 <0>         0.1420
     43 H15         1.5404   -1.3273   -8.7572 H         1 <0>         0.4085
     44 H16         2.5933   -0.3448   -9.6225 H         1 <0>         0.4061
     45 H17        -1.9234    0.3514    1.7545 H         1 <0>         0.4159
     46 H18        -3.6697   -1.8399   -0.8585 H         1 <0>         0.1729
     47 H19        -6.0820   -2.9537   -1.3032 H         1 <0>         0.1341
     48 H20        -8.1403   -1.2158    0.3030 H         1 <0>         0.0947
     49 H21        -8.5115   -2.2322   -1.1906 H         1 <0>         0.1080
     50 H22        -7.7490   -4.3162    0.0381 H         1 <0>         0.1079
     51 H23        -7.3778   -3.2998    1.5316 H         1 <0>         0.0948
@<TRIPOS>BOND
     1    1    2 1
     2    1   30 1
     3    1   31 1
     4    1   32 1
     5    2    3 1
     6    2   18 1
     7    2   33 1
     8    3    8 ar
     9    3    4 ar
    10    4    5 ar
    11    4   34 1
    12    5    6 ar
    13    5   35 1
    14    6    7 ar
    15    6    9 1
    16    7    8 ar
    17    7   36 1
    18    8   37 1
    19    9   13 am
    20    9   10 1
    21   10   11 1
    22   10   38 1
    23   10   39 1
    24   11   12 1
    25   11   40 1
    26   11   41 1
    27   12   13 1
    28   12   15 1
    29   12   42 1
    30   13   14 2
    31   15   16 2
    32   15   17 am
    33   17   43 1
    34   17   44 1
    35   18   19 2
    36   18   20 am
    37   20   21 1
    38   20   45 1
    39   21   26 2
    40   21   22 1
    41   22   23 2
    42   22   46 1
    43   23   24 1
    44   23   27 1
    45   24   25 1
    46   24   26 1
    47   27   29 1
    48   27   28 1
    49   27   47 1
    50   28   29 1
    51   28   48 1
    52   28   49 1
    53   29   50 1
    54   29   51 1
@<TRIPOS>MOLECULE
CHEMBL192556
   51    54     0     0     0
SMALL
USER_CHARGES

@<TRIPOS>ATOM
      1 C1         -0.0354    1.5254    0.0203 C.3       1 <0>        -0.1461
      2 C2          0.0021   -0.0041    0.0020 C.3       1 <0>        -0.0577
      3 C3          0.7310   -0.5033    1.2229 C.ar      1 <0>        -0.0989
      4 C4          2.0456   -0.1338    1.4407 C.ar      1 <0>        -0.0541
      5 C5          2.7164   -0.5897    2.5587 C.ar      1 <0>        -0.1534
      6 C6          2.0690   -1.4195    3.4647 C.ar      1 <0>         0.1679
      7 C7          0.7486   -1.7883    3.2433 C.ar      1 <0>        -0.1557
      8 C8          0.0819   -1.3252    2.1259 C.ar      1 <0>        -0.0791
      9 N1          2.7459   -1.8834    4.5981 N.am      1 <0>        -0.5527
     10 C9          2.1233   -2.6666    5.6717 C.3       1 <0>         0.0922
     11 C10         3.0952   -2.5709    6.8686 C.3       1 <0>        -0.1164
     12 C11         4.4429   -2.3026    6.1597 C.3       1 <0>        -0.1503
     13 C12         4.0513   -1.6738    4.8406 C.2       1 <0>         0.5283
     14 O1          4.8050   -1.0666    4.1095 O.2       1 <0>        -0.4968
     15 C13         5.2860   -1.3532    6.9713 C.2       1 <0>         0.5381
     16 O2          4.8676   -0.9184    8.0234 O.2       1 <0>        -0.5334
     17 N2          6.5051   -0.9872    6.5281 N.am      1 <0>        -0.8405
     18 C14         0.7182   -0.4742   -1.2378 C.2       1 <0>         0.5233
     19 O3          1.7217   -1.1484   -1.1397 O.2       1 <0>        -0.4870
     20 N3          0.2436   -0.1456   -2.4557 N.am      1 <0>        -0.6518
     21 C15         0.9064   -0.5808   -3.6031 C.2       1 <0>         0.3069
     22 C16         2.0363   -1.3386   -3.6405 C.2       1 <0>        -0.2697
     23 C17         2.3658   -1.5496   -4.9822 C.2       1 <0>         0.1219
     24 N4          1.4738   -0.9454   -5.7248 N.2       1 <0>        -0.2795
     25 H1         -0.2324    0.1837   -5.1630 H         1 <0>         0.4363
     26 N5          0.5397   -0.3312   -4.8809 N.pl3     1 <0>        -0.4913
     27 C18         3.5469   -2.3376   -5.4874 C.3       1 <0>        -0.0851
     28 C19         4.6719   -2.6385   -4.4951 C.3       1 <0>        -0.1632
     29 C20         4.8859   -1.6067   -5.6044 C.3       1 <0>        -0.1632
     30 H2          0.9830    1.9138    0.0196 H         1 <0>         0.0671
     31 H3         -0.5626    1.8865   -0.8628 H         1 <0>         0.0632
     32 H4         -0.5534    1.8654    0.9170 H         1 <0>         0.0779
     33 H5         -1.0163   -0.3925    0.0027 H         1 <0>         0.1114
     34 H6          2.5485    0.5115    0.7357 H         1 <0>         0.1238
     35 H7          3.7433   -0.3014    2.7279 H         1 <0>         0.1547
     36 H8          0.2426   -2.4338    3.9459 H         1 <0>         0.1280
     37 H9         -0.9462   -1.6083    1.9553 H         1 <0>         0.1279
     38 H10         1.1555   -2.2408    5.9367 H         1 <0>         0.0943
     39 H11         2.0072   -3.7053    5.3623 H         1 <0>         0.0874
     40 H12         2.8271   -1.7418    7.5235 H         1 <0>         0.1060
     41 H13         3.1257   -3.5093    7.4224 H         1 <0>         0.1048
     42 H14         4.9767   -3.2375    5.9887 H         1 <0>         0.1424
     43 H15         6.8398   -1.3349    5.6867 H         1 <0>         0.4086
     44 H16         7.0478   -0.3761    7.0505 H         1 <0>         0.4063
     45 H17        -0.5590    0.3935   -2.5342 H         1 <0>         0.4120
     46 H18         2.5815   -1.7105   -2.7856 H         1 <0>         0.1739
     47 H19         3.3202   -3.0959   -6.2369 H         1 <0>         0.1214
     48 H20         4.5578   -2.2665   -3.4769 H         1 <0>         0.1015
     49 H21         5.1856   -3.5951   -4.5915 H         1 <0>         0.1019
     50 H22         5.5404   -1.8845   -6.4306 H         1 <0>         0.1012
     51 H23         4.9126   -0.5559   -5.3160 H         1 <0>         0.0950
@<TRIPOS>BOND
     1    1    2 1
     2    1   30 1
     3    1   31 1
     4    1   32 1
     5    2    3 1
     6    2   18 1
     7    2   33 1
     8    3    8 ar
     9    3    4 ar
    10    4    5 ar
    11    4   34 1
    12    5    6 ar
    13    5   35 1
    14    6    7 ar
    15    6    9 1
    16    7    8 ar
    17    7   36 1
    18    8   37 1
    19    9   13 am
    20    9   10 1
    21   10   11 1
    22   10   38 1
    23   10   39 1
    24   11   12 1
    25   11   40 1
    26   11   41 1
    27   12   13 1
    28   12   15 1
    29   12   42 1
    30   13   14 2
    31   15   16 2
    32   15   17 am
    33   17   43 1
    34   17   44 1
    35   18   19 2
    36   18   20 am
    37   20   45 1
    38   20   21 1
    39   21   22 2
    40   21   26 1
    41   22   23 1
    42   22   46 1
    43   23   24 2
    44   23   27 1
    45   24   26 1
    46   25   26 1
    47   27   29 1
    48   27   28 1
    49   27   47 1
    50   28   29 1
    51   28   48 1
    52   28   49 1
    53   29   50 1
    54   29   51 1
@<TRIPOS>MOLECULE
CHEMBL192556
   51    54     0     0     0
SMALL
USER_CHARGES

@<TRIPOS>ATOM
      1 C1         -0.0188    1.5258   -0.0074 C.3       1 <0>        -0.1460
      2 C2          0.0021   -0.0041    0.0020 C.3       1 <0>        -0.0597
      3 C3         -1.4117   -0.5257    0.0127 C.ar      1 <0>        -0.0963
      4 C4         -2.2702   -0.2135   -1.0255 C.ar      1 <0>        -0.0537
      5 C5         -3.5665   -0.6900   -1.0186 C.ar      1 <0>        -0.1542
      6 C6         -4.0074   -1.4838    0.0321 C.ar      1 <0>         0.1661
      7 C7         -3.1427   -1.7958    1.0730 C.ar      1 <0>        -0.1564
      8 C8         -1.8461   -1.3202    1.0578 C.ar      1 <0>        -0.0796
      9 N1         -5.3202   -1.9677    0.0423 N.am      1 <0>        -0.5523
     10 C9         -5.8504   -2.9027    1.0416 C.3       1 <0>         0.0921
     11 C10        -7.3875   -2.8061    0.9218 C.3       1 <0>        -0.1167
     12 C11        -7.5607   -2.3345   -0.5406 C.3       1 <0>        -0.1502
     13 C12        -6.2595   -1.6316   -0.8587 C.2       1 <0>         0.5282
     14 O1         -6.0879   -0.8766   -1.7923 O.2       1 <0>        -0.4976
     15 C13        -8.7159   -1.3731   -0.6515 C.2       1 <0>         0.5377
     16 O2         -9.3559   -1.0778    0.3355 O.2       1 <0>        -0.5337
     17 N2         -9.0377   -0.8414   -1.8474 N.am      1 <0>        -0.8404
     18 C14         0.7128   -0.5043   -1.2291 C.2       1 <0>         0.5258
     19 O3          0.1287   -1.2146   -2.0201 O.2       1 <0>        -0.4978
     20 N3          1.9974   -0.1625   -1.4513 N.am      1 <0>        -0.6362
     21 C15         2.6584   -0.6278   -2.5963 C.2       1 <0>         0.3037
     22 C16         2.1044   -1.4476   -3.5926 C.2       1 <0>        -0.2591
     23 C17         3.0594   -1.6724   -4.5234 C.2       1 <0>         0.1305
     24 N4          4.1766   -1.0220   -4.1357 N.pl3     1 <0>        -0.4675
     25 H1          5.0213   -1.0064   -4.6124 H         1 <0>         0.4390
     26 N5          3.9014   -0.3688   -2.9275 N.2       1 <0>        -0.3189
     27 C18         2.9038   -2.5022   -5.7717 C.3       1 <0>        -0.0984
     28 C19         4.1274   -3.2802   -6.2599 C.3       1 <0>        -0.1703
     29 C20         3.6532   -2.0422   -7.0238 C.3       1 <0>        -0.1699
     30 H2          1.0038    1.9031   -0.0152 H         1 <0>         0.0654
     31 H3         -0.5422    1.8765   -0.8969 H         1 <0>         0.0663
     32 H4         -0.5329    1.8876    0.8830 H         1 <0>         0.0765
     33 H5          0.5255   -0.3548    0.8914 H         1 <0>         0.1113
     34 H6         -1.9267    0.4038   -1.8424 H         1 <0>         0.1242
     35 H7         -4.2367   -0.4453   -1.8294 H         1 <0>         0.1545
     36 H8         -3.4827   -2.4126    1.8918 H         1 <0>         0.1276
     37 H9         -1.1719   -1.5659    1.8650 H         1 <0>         0.1280
     38 H10        -5.5180   -3.9174    0.8225 H         1 <0>         0.0879
     39 H11        -5.5307   -2.6078    2.0411 H         1 <0>         0.0939
     40 H12        -7.8527   -3.7798    1.0753 H         1 <0>         0.1046
     41 H13        -7.7876   -2.0699    1.6190 H         1 <0>         0.1058
     42 H14        -7.7090   -3.1883   -1.2018 H         1 <0>         0.1427
     43 H15        -8.5258   -1.0775   -2.6367 H         1 <0>         0.4084
     44 H16        -9.7813   -0.2225   -1.9187 H         1 <0>         0.4061
     45 H17         2.4645    0.4055   -0.8188 H         1 <0>         0.4159
     46 H18         1.0948   -1.8307   -3.6121 H         1 <0>         0.1729
     47 H19         1.9257   -2.9626   -5.9113 H         1 <0>         0.1340
     48 H20         5.0450   -3.1918   -5.6782 H         1 <0>         0.0947
     49 H21         3.9545   -4.2527   -6.7207 H         1 <0>         0.1079
     50 H22         3.1684   -2.2003   -7.9871 H         1 <0>         0.1079
     51 H23         4.2588   -1.1394   -6.9446 H         1 <0>         0.0949
@<TRIPOS>BOND
     1    1    2 1
     2    1   30 1
     3    1   31 1
     4    1   32 1
     5    2    3 1
     6    2   18 1
     7    2   33 1
     8    3    8 ar
     9    3    4 ar
    10    4    5 ar
    11    4   34 1
    12    5    6 ar
    13    5   35 1
    14    6    7 ar
    15    6    9 1
    16    7    8 ar
    17    7   36 1
    18    8   37 1
    19    9   13 am
    20    9   10 1
    21   10   11 1
    22   10   38 1
    23   10   39 1
    24   11   12 1
    25   11   40 1
    26   11   41 1
    27   12   13 1
    28   12   15 1
    29   12   42 1
    30   13   14 2
    31   15   16 2
    32   15   17 am
    33   17   43 1
    34   17   44 1
    35   18   19 2
    36   18   20 am
    37   20   21 1
    38   20   45 1
    39   21   26 2
    40   21   22 1
    41   22   23 2
    42   22   46 1
    43   23   24 1
    44   23   27 1
    45   24   25 1
    46   24   26 1
    47   27   29 1
    48   27   28 1
    49   27   47 1
    50   28   29 1
    51   28   48 1
    52   28   49 1
    53   29   50 1
    54   29   51 1
@<TRIPOS>MOLECULE
CHEMBL192556
   51    54     0     0     0
SMALL
USER_CHARGES

@<TRIPOS>ATOM
      1 C1         -0.0031    1.5258    0.0192 C.3       1 <0>        -0.1461
      2 C2          0.0021   -0.0041    0.0020 C.3       1 <0>        -0.0576
      3 C3          0.7075   -0.4901   -1.2379 C.ar      1 <0>        -0.0994
      4 C4          2.0307   -0.1528   -1.4558 C.ar      1 <0>        -0.0536
      5 C5          2.6800   -0.5966   -2.5911 C.ar      1 <0>        -0.1538
      6 C6          2.0027   -1.3827   -3.5141 C.ar      1 <0>         0.1681
      7 C7          0.6740   -1.7201   -3.2920 C.ar      1 <0>        -0.1564
      8 C8          0.0318   -1.2770   -2.1523 C.ar      1 <0>        -0.0789
      9 N1          2.6575   -1.8336   -4.6655 N.am      1 <0>        -0.5526
     10 C9          2.0715   -2.7585   -5.6429 C.3       1 <0>         0.0921
     11 C10         2.9419   -2.6229   -6.9119 C.3       1 <0>        -0.1167
     12 C11         4.2877   -2.1420   -6.3213 C.3       1 <0>        -0.1501
     13 C12         3.9018   -1.4708   -5.0216 C.2       1 <0>         0.5284
     14 O1          4.6129   -0.7171   -4.3912 O.2       1 <0>        -0.4971
     15 C13         4.9459   -1.1515   -7.2468 C.2       1 <0>         0.5377
     16 O2          4.4064   -0.8437   -8.2885 O.2       1 <0>        -0.5336
     17 N2          6.1342   -0.6077   -6.9170 N.am      1 <0>        -0.8403
     18 C14         0.7209   -0.5177    1.2229 C.2       1 <0>         0.5235
     19 O3          1.7089   -1.2103    1.0984 O.2       1 <0>        -0.4874
     20 N3          0.2661   -0.2075    2.4530 N.am      1 <0>        -0.6517
     21 C15         0.9314   -0.6829    3.5830 C.2       1 <0>         0.3070
     22 C16         2.0453   -1.4649    3.5907 C.2       1 <0>        -0.2697
     23 C17         2.3852   -1.7123    4.9235 C.2       1 <0>         0.1218
     24 N4          1.5145   -1.1062    5.6894 N.2       1 <0>        -0.2794
     25 H1         -0.1626    0.0862    5.1724 H         1 <0>         0.4364
     26 N5          0.5902   -0.4456    4.8701 N.pl3     1 <0>        -0.4912
     27 C18         3.5543   -2.5367    5.3976 C.3       1 <0>        -0.0849
     28 C19         4.2213   -3.4664    4.3818 C.3       1 <0>        -0.1632
     29 C20         3.3559   -4.0503    5.5004 C.3       1 <0>        -0.1633
     30 H2          1.0233    1.8927    0.0177 H         1 <0>         0.0672
     31 H3         -0.5231    1.8974   -0.8638 H         1 <0>         0.0778
     32 H4         -0.5133    1.8774    0.9160 H         1 <0>         0.0632
     33 H5         -1.0243   -0.3709    0.0035 H         1 <0>         0.1113
     34 H6          2.5569    0.4586   -0.7377 H         1 <0>         0.1241
     35 H7          3.7133   -0.3323   -2.7611 H         1 <0>         0.1552
     36 H8          0.1444   -2.3309   -4.0081 H         1 <0>         0.1281
     37 H9         -1.0003   -1.5424   -1.9770 H         1 <0>         0.1278
     38 H10         2.1110   -3.7804   -5.2659 H         1 <0>         0.0882
     39 H11         1.0416   -2.4752   -5.8599 H         1 <0>         0.0939
     40 H12         3.0566   -3.5851   -7.4109 H         1 <0>         0.1048
     41 H13         2.5266   -1.8794   -7.5922 H         1 <0>         0.1058
     42 H14         4.9476   -2.9895   -6.1362 H         1 <0>         0.1431
     43 H15         6.5657   -0.8539   -6.0838 H         1 <0>         0.4085
     44 H16         6.5579    0.0298   -7.5127 H         1 <0>         0.4062
     45 H17        -0.5240    0.3464    2.5526 H         1 <0>         0.4120
     46 H18         2.5725   -1.8297    2.7215 H         1 <0>         0.1739
     47 H19         4.1940   -2.0613    6.1411 H         1 <0>         0.1215
     48 H20         3.8145   -3.4817    3.3707 H         1 <0>         0.1014
     49 H21         5.3001   -3.6026    4.4569 H         1 <0>         0.1020
     50 H22         3.8655   -4.5707    6.3113 H         1 <0>         0.1012
     51 H23         2.3799   -4.4498    5.2251 H         1 <0>         0.0949
@<TRIPOS>BOND
     1    1    2 1
     2    1   30 1
     3    1   31 1
     4    1   32 1
     5    2    3 1
     6    2   18 1
     7    2   33 1
     8    3    8 ar
     9    3    4 ar
    10    4    5 ar
    11    4   34 1
    12    5    6 ar
    13    5   35 1
    14    6    7 ar
    15    6    9 1
    16    7    8 ar
    17    7   36 1
    18    8   37 1
    19    9   13 am
    20    9   10 1
    21   10   11 1
    22   10   38 1
    23   10   39 1
    24   11   12 1
    25   11   40 1
    26   11   41 1
    27   12   13 1
    28   12   15 1
    29   12   42 1
    30   13   14 2
    31   15   16 2
    32   15   17 am
    33   17   43 1
    34   17   44 1
    35   18   19 2
    36   18   20 am
    37   20   45 1
    38   20   21 1
    39   21   22 2
    40   21   26 1
    41   22   23 1
    42   22   46 1
    43   23   24 2
    44   23   27 1
    45   24   26 1
    46   25   26 1
    47   27   29 1
    48   27   28 1
    49   27   47 1
    50   28   29 1
    51   28   48 1
    52   28   49 1
    53   29   50 1
    54   29   51 1
@<TRIPOS>MOLECULE
CHEMBL192556
   51    54     0     0     0
SMALL
USER_CHARGES

@<TRIPOS>ATOM
      1 C1         -0.0188    1.5258   -0.0090 C.3       1 <0>        -0.1457
      2 C2          0.0021   -0.0041    0.0020 C.3       1 <0>        -0.0596
      3 C3         -1.4117   -0.5257    0.0127 C.ar      1 <0>        -0.0962
      4 C4         -2.2698   -0.2146   -1.0261 C.ar      1 <0>        -0.0537
      5 C5         -3.5661   -0.6911   -1.0193 C.ar      1 <0>        -0.1539
      6 C6         -4.0074   -1.4838    0.0321 C.ar      1 <0>         0.1660
      7 C7         -3.1430   -1.7947    1.0736 C.ar      1 <0>        -0.1560
      8 C8         -1.8465   -1.3191    1.0585 C.ar      1 <0>        -0.0797
      9 N1         -5.3202   -1.9677    0.0423 N.am      1 <0>        -0.5523
     10 C9         -5.8504   -2.9027    1.0416 C.3       1 <0>         0.0923
     11 C10        -7.1438   -3.4776    0.4228 C.3       1 <0>        -0.1166
     12 C11        -7.5551   -2.3501   -0.5522 C.3       1 <0>        -0.1501
     13 C12        -6.2595   -1.6316   -0.8587 C.2       1 <0>         0.5281
     14 O1         -6.0918   -0.8657   -1.7841 O.2       1 <0>        -0.4977
     15 C13        -8.1507   -2.9306   -1.8089 C.2       1 <0>         0.5378
     16 O2         -8.2472   -4.1330   -1.9348 O.2       1 <0>        -0.5330
     17 N2         -8.5760   -2.1137   -2.7928 N.am      1 <0>        -0.8406
     18 C14         0.7132   -0.5056   -1.2283 C.2       1 <0>         0.5253
     19 O3          0.1295   -1.2167   -2.0188 O.2       1 <0>        -0.4973
     20 N3          1.9980   -0.1640   -1.4504 N.am      1 <0>        -0.6362
     21 C15         2.6594   -0.6305   -2.5947 C.2       1 <0>         0.3037
     22 C16         2.1058   -1.4513   -3.5903 C.2       1 <0>        -0.2591
     23 C17         3.0611   -1.6770   -4.5205 C.2       1 <0>         0.1307
     24 N4          4.1782   -1.0262   -4.1331 N.pl3     1 <0>        -0.4675
     25 H1          5.0231   -1.0111   -4.6094 H         1 <0>         0.4390
     26 N5          3.9025   -0.3718   -2.9257 N.2       1 <0>        -0.3190
     27 C18         2.9060   -2.5081   -5.7680 C.3       1 <0>        -0.0986
     28 C19         4.1298   -3.2866   -6.2550 C.3       1 <0>        -0.1702
     29 C20         3.6559   -2.0494   -7.0203 C.3       1 <0>        -0.1698
     30 H2          1.0038    1.9030   -0.0168 H         1 <0>         0.0654
     31 H3         -0.5419    1.8756   -0.8990 H         1 <0>         0.0663
     32 H4         -0.5332    1.8885    0.8809 H         1 <0>         0.0765
     33 H5          0.5252   -0.3539    0.8920 H         1 <0>         0.1113
     34 H6         -1.9260    0.4019   -1.8435 H         1 <0>         0.1242
     35 H7         -4.2360   -0.4472   -1.8306 H         1 <0>         0.1541
     36 H8         -3.4834   -2.4107    1.8929 H         1 <0>         0.1275
     37 H9         -1.1726   -1.5640    1.8661 H         1 <0>         0.1280
     38 H10        -5.1335   -3.7024    1.2277 H         1 <0>         0.0942
     39 H11        -6.0775   -2.3756    1.9682 H         1 <0>         0.0873
     40 H12        -6.9408   -4.4036   -0.1151 H         1 <0>         0.1059
     41 H13        -7.9068   -3.6308    1.1860 H         1 <0>         0.1046
     42 H14        -8.2599   -1.6701   -0.0737 H         1 <0>         0.1420
     43 H15        -8.4988   -1.1520   -2.6921 H         1 <0>         0.4083
     44 H16        -8.9594   -2.4874   -3.6017 H         1 <0>         0.4062
     45 H17         2.4648    0.4046   -0.8183 H         1 <0>         0.4158
     46 H18         1.0962   -1.8344   -3.6098 H         1 <0>         0.1728
     47 H19         1.9280   -2.9687   -5.9075 H         1 <0>         0.1341
     48 H20         5.0472   -3.1976   -5.6730 H         1 <0>         0.0947
     49 H21         3.9571   -4.2596   -6.7148 H         1 <0>         0.1079
     50 H22         3.1714   -2.2085   -7.9836 H         1 <0>         0.1079
     51 H23         4.2615   -1.1465   -6.9418 H         1 <0>         0.0949
@<TRIPOS>BOND
     1    1    2 1
     2    1   30 1
     3    1   31 1
     4    1   32 1
     5    2    3 1
     6    2   18 1
     7    2   33 1
     8    3    8 ar
     9    3    4 ar
    10    4    5 ar
    11    4   34 1
    12    5    6 ar
    13    5   35 1
    14    6    7 ar
    15    6    9 1
    16    7    8 ar
    17    7   36 1
    18    8   37 1
    19    9   13 am
    20    9   10 1
    21   10   11 1
    22   10   38 1
    23   10   39 1
    24   11   12 1
    25   11   40 1
    26   11   41 1
    27   12   13 1
    28   12   15 1
    29   12   42 1
    30   13   14 2
    31   15   16 2
    32   15   17 am
    33   17   43 1
    34   17   44 1
    35   18   19 2
    36   18   20 am
    37   20   21 1
    38   20   45 1
    39   21   26 2
    40   21   22 1
    41   22   23 2
    42   22   46 1
    43   23   24 1
    44   23   27 1
    45   24   25 1
    46   24   26 1
    47   27   29 1
    48   27   28 1
    49   27   47 1
    50   28   29 1
    51   28   48 1
    52   28   49 1
    53   29   50 1
    54   29   51 1
@<TRIPOS>MOLECULE
CHEMBL192556
   51    54     0     0     0
SMALL
USER_CHARGES

@<TRIPOS>ATOM
      1 C1         -0.0018    1.5258    0.0200 C.3       1 <0>        -0.1458
      2 C2          0.0021   -0.0041    0.0020 C.3       1 <0>        -0.0576
      3 C3          0.7075   -0.4901   -1.2379 C.ar      1 <0>        -0.0993
      4 C4          2.0311   -0.1539   -1.4552 C.ar      1 <0>        -0.0535
      5 C5          2.6804   -0.5977   -2.5905 C.ar      1 <0>        -0.1535
      6 C6          2.0027   -1.3827   -3.5141 C.ar      1 <0>         0.1680
      7 C7          0.6736   -1.7190   -3.2927 C.ar      1 <0>        -0.1560
      8 C8          0.0314   -1.2760   -2.1530 C.ar      1 <0>        -0.0790
      9 N1          2.6575   -1.8336   -4.6655 N.am      1 <0>        -0.5527
     10 C9          2.0715   -2.7585   -5.6429 C.3       1 <0>         0.0923
     11 C10         3.2628   -3.2986   -6.4649 C.3       1 <0>        -0.1167
     12 C11         4.2951   -2.1577   -6.3109 C.3       1 <0>        -0.1500
     13 C12         3.9018   -1.4708   -5.0216 C.2       1 <0>         0.5284
     14 O1          4.6076   -0.7062   -4.3985 O.2       1 <0>        -0.4971
     15 C13         5.6901   -2.7187   -6.2099 C.2       1 <0>         0.5377
     16 O2          5.8662   -3.9179   -6.2546 O.2       1 <0>        -0.5326
     17 N2          6.7421   -1.8879   -6.0700 N.am      1 <0>        -0.8405
     18 C14         0.7200   -0.5190    1.2229 C.2       1 <0>         0.5229
     19 O3          1.7074   -1.2124    1.0984 O.2       1 <0>        -0.4869
     20 N3          0.2650   -0.2090    2.4530 N.am      1 <0>        -0.6516
     21 C15         0.9295   -0.6856    3.5829 C.2       1 <0>         0.3067
     22 C16         2.0428   -1.4686    3.5906 C.2       1 <0>        -0.2696
     23 C17         2.3819   -1.7170    4.9235 C.2       1 <0>         0.1220
     24 N4          1.5115   -1.1105    5.6894 N.2       1 <0>        -0.2794
     25 H1         -0.1644    0.0836    5.1724 H         1 <0>         0.4363
     26 N5          0.5881   -0.4487    4.8701 N.pl3     1 <0>        -0.4913
     27 C18         3.5501   -2.5427    5.3975 C.3       1 <0>        -0.0851
     28 C19         4.2166   -3.4724    4.3815 C.3       1 <0>        -0.1632
     29 C20         3.3503   -4.0562    5.4995 C.3       1 <0>        -0.1633
     30 H2          1.0250    1.8918    0.0191 H         1 <0>         0.0672
     31 H3         -0.5210    1.8983   -0.8630 H         1 <0>         0.0778
     32 H4         -0.5119    1.8774    0.9168 H         1 <0>         0.0632
     33 H5         -1.0246   -0.3700    0.0030 H         1 <0>         0.1113
     34 H6          2.5576    0.4566   -0.7365 H         1 <0>         0.1241
     35 H7          3.7139   -0.3343   -2.7600 H         1 <0>         0.1547
     36 H8          0.1437   -2.3290   -4.0092 H         1 <0>         0.1280
     37 H9         -1.0010   -1.5405   -1.9782 H         1 <0>         0.1278
     38 H10         1.5646   -3.5766   -5.1312 H         1 <0>         0.0943
     39 H11         1.3743   -2.2291   -6.2923 H         1 <0>         0.0874
     40 H12         3.6416   -4.2275   -6.0387 H         1 <0>         0.1062
     41 H13         2.9854   -3.4353   -7.5101 H         1 <0>         0.1048
     42 H14         4.2223   -1.4620   -7.1469 H         1 <0>         0.1421
     43 H15         6.6013   -0.9289   -6.0342 H         1 <0>         0.4082
     44 H16         7.6400   -2.2491   -6.0050 H         1 <0>         0.4064
     45 H17        -0.5246    0.3456    2.5526 H         1 <0>         0.4119
     46 H18         2.5699   -1.8334    2.7215 H         1 <0>         0.1738
     47 H19         4.1900   -2.0683    6.1415 H         1 <0>         0.1215
     48 H20         3.8101   -3.4869    3.3702 H         1 <0>         0.1014
     49 H21         5.2953   -3.6097    4.4569 H         1 <0>         0.1021
     50 H22         3.8591   -4.5775    6.3103 H         1 <0>         0.1013
     51 H23         2.3740   -4.4547    5.2236 H         1 <0>         0.0949
@<TRIPOS>BOND
     1    1    2 1
     2    1   30 1
     3    1   31 1
     4    1   32 1
     5    2    3 1
     6    2   18 1
     7    2   33 1
     8    3    8 ar
     9    3    4 ar
    10    4    5 ar
    11    4   34 1
    12    5    6 ar
    13    5   35 1
    14    6    7 ar
    15    6    9 1
    16    7    8 ar
    17    7   36 1
    18    8   37 1
    19    9   13 am
    20    9   10 1
    21   10   11 1
    22   10   38 1
    23   10   39 1
    24   11   12 1
    25   11   40 1
    26   11   41 1
    27   12   13 1
    28   12   15 1
    29   12   42 1
    30   13   14 2
    31   15   16 2
    32   15   17 am
    33   17   43 1
    34   17   44 1
    35   18   19 2
    36   18   20 am
    37   20   45 1
    38   20   21 1
    39   21   22 2
    40   21   26 1
    41   22   23 1
    42   22   46 1
    43   23   24 2
    44   23   27 1
    45   24   26 1
    46   25   26 1
    47   27   29 1
    48   27   28 1
    49   27   47 1
    50   28   29 1
    51   28   48 1
    52   28   49 1
    53   29   50 1
    54   29   51 1
@<TRIPOS>MOLECULE
CHEMBL426972
   34    35     0     0     0
SMALL
USER_CHARGES

@<TRIPOS>ATOM
      1 C1         -0.0187    1.5258    0.0104 C.3       1 <0>        -0.1484
      2 C2          0.0021   -0.0041    0.0020 C.3       1 <0>        -0.0021
      3 C3         -1.4333   -0.5336    0.0129 C.3       1 <0>        -0.1485
      4 C4          0.7074   -0.4901   -1.2379 C.2       1 <0>        -0.2009
      5 C5          1.8175   -1.2594   -1.3558 C.2       1 <0>         0.0591
      6 N1          2.2260   -1.5396   -2.5795 N.2       1 <0>        -0.5177
      7 C6          1.5791   -1.0885   -3.6323 C.2       1 <0>         0.2658
      8 S1          0.3072   -0.2179   -2.9564 S.3       1 <0>         0.1086
      9 N2          1.8718   -1.2872   -4.9765 N.am      1 <0>        -0.6260
     10 C7          2.9409   -2.0273   -5.3312 C.2       1 <0>         0.5059
     11 O1          3.6476   -2.5199   -4.4774 O.2       1 <0>        -0.4563
     12 C8          3.2582   -2.2428   -6.7885 C.3       1 <0>        -0.0943
     13 C9          4.4926   -3.0982   -6.9128 C.ar      1 <0>        -0.0760
     14 C10         5.7412   -2.5069   -6.9610 C.ar      1 <0>        -0.1028
     15 C11         6.8736   -3.2916   -7.0750 C.ar      1 <0>        -0.1188
     16 C12         6.7574   -4.6675   -7.1402 C.ar      1 <0>        -0.1155
     17 C13         5.5088   -5.2588   -7.0910 C.ar      1 <0>        -0.1188
     18 C14         4.3767   -4.4744   -6.9728 C.ar      1 <0>        -0.1029
     19 H1          1.0039    1.9031    0.0027 H         1 <0>         0.0598
     20 H2         -0.5459    1.8868   -0.8726 H         1 <0>         0.0569
     21 H3         -0.5289    1.8773    0.9072 H         1 <0>         0.0659
     22 H4          0.5293   -0.3651    0.8851 H         1 <0>         0.0968
     23 H5         -1.9605   -0.1726   -0.8702 H         1 <0>         0.0568
     24 H6         -1.4185   -1.6235    0.0069 H         1 <0>         0.0598
     25 H7         -1.9435   -0.1821    0.9097 H         1 <0>         0.0660
     26 H8          2.3443   -1.6264   -0.4874 H         1 <0>         0.1732
     27 H9          1.3065   -0.8933   -5.6593 H         1 <0>         0.4255
     28 H10         2.4194   -2.7427   -7.2729 H         1 <0>         0.1098
     29 H11         3.4335   -1.2799   -7.2684 H         1 <0>         0.1099
     30 H12         5.8320   -1.4320   -6.9101 H         1 <0>         0.1201
     31 H13         7.8490   -2.8296   -7.1134 H         1 <0>         0.1233
     32 H14         7.6420   -5.2805   -7.2299 H         1 <0>         0.1227
     33 H15         5.4180   -6.3337   -7.1423 H         1 <0>         0.1233
     34 H16         3.4015   -4.9365   -6.9306 H         1 <0>         0.1201
@<TRIPOS>BOND
     1    1    2 1
     2    1   19 1
     3    1   20 1
     4    1   21 1
     5    2    3 1
     6    2    4 1
     7    2   22 1
     8    3   23 1
     9    3   24 1
    10    3   25 1
    11    4    8 1
    12    4    5 2
    13    5    6 1
    14    5   26 1
    15    6    7 2
    16    7    8 1
    17    7    9 1
    18    9   10 am
    19    9   27 1
    20   10   11 2
    21   10   12 1
    22   12   13 1
    23   12   28 1
    24   12   29 1
    25   13   18 ar
    26   13   14 ar
    27   14   15 ar
    28   14   30 1
    29   15   16 ar
    30   15   31 1
    31   16   17 ar
    32   16   32 1
    33   17   18 ar
    34   17   33 1
    35   18   34 1
@<TRIPOS>MOLECULE
CHEMBL519715
   50    53     0     0     0
SMALL
USER_CHARGES

@<TRIPOS>ATOM
      1 C1          0.0158    1.5043    0.0085 C.3       1 <0>        -0.0789
      2 C2          0.1773    0.0061   -0.0108 C.2       1 <0>         0.1221
      3 C3          0.0991   -0.8092   -1.1264 C.2       1 <0>        -0.1615
      4 C4         -0.1302   -0.5962   -2.4942 C.2       1 <0>         0.3154
      5 N1         -0.1408   -1.6227   -3.3145 N.2       1 <0>        -0.5589
      6 C5          0.0620   -2.8729   -2.8818 C.2       1 <0>         0.5571
      7 N2          0.2823   -3.1436   -1.6161 N.2       1 <0>        -0.3710
      8 N3          0.3086   -2.1035   -0.6807 N.pl3     1 <0>        -0.2398
      9 C6          0.5020   -2.0333    0.6555 C.2       1 <0>         0.3069
     10 N4          0.4258   -0.7683    1.0381 N.2       1 <0>        -0.4525
     11 C7          0.7625   -3.1835    1.5453 C.ar      1 <0>        -0.0312
     12 C8          0.5260   -4.4846    1.0970 C.ar      1 <0>        -0.0897
     13 C9          0.7719   -5.5541    1.9329 C.ar      1 <0>        -0.1234
     14 C10         1.2513   -5.3397    3.2131 C.ar      1 <0>        -0.1019
     15 C11         1.4874   -4.0530    3.6638 C.ar      1 <0>        -0.1236
     16 C12         1.2518   -2.9748    2.8363 C.ar      1 <0>        -0.0720
     17 N5          0.0381   -3.9149   -3.7989 N.pl3     1 <0>        -0.6243
     18 C13        -0.0783   -3.6410   -5.1667 C.ar      1 <0>         0.2378
     19 C14         0.5000   -2.4954   -5.6965 C.ar      1 <0>        -0.2277
     20 C15         0.3852   -2.2234   -7.0508 C.ar      1 <0>         0.1706
     21 C16        -0.3086   -3.0981   -7.8785 C.ar      1 <0>         0.0145
     22 C17        -0.8868   -4.2448   -7.3475 C.ar      1 <0>         0.1724
     23 C18        -0.7671   -4.5179   -5.9938 C.ar      1 <0>        -0.2602
     24 O1         -1.5660   -5.1013   -8.1566 O.3       1 <0>        -0.2979
     25 C19        -2.1345   -6.2600   -7.5433 C.3       1 <0>         0.0234
     26 O2         -0.4222   -2.8313   -9.2090 O.3       1 <0>        -0.3101
     27 C20         0.5995   -3.3485  -10.0639 C.3       1 <0>         0.0343
     28 O3          0.9510   -1.1008   -7.5694 O.3       1 <0>        -0.2975
     29 C21         1.6486   -0.2467   -6.6607 C.3       1 <0>         0.0252
     30 H1          0.9865    1.9763   -0.1438 H         1 <0>         0.0849
     31 H2         -0.6642    1.8067   -0.7878 H         1 <0>         0.0801
     32 H3         -0.3915    1.8134    0.9711 H         1 <0>         0.0852
     33 H4         -0.2970    0.4027   -2.8694 H         1 <0>         0.1979
     34 H5          0.1512   -4.6532    0.0983 H         1 <0>         0.1348
     35 H6          0.5894   -6.5609    1.5875 H         1 <0>         0.1276
     36 H7          1.4417   -6.1806    3.8635 H         1 <0>         0.1271
     37 H8          1.8609   -3.8927    4.6644 H         1 <0>         0.1310
     38 H9          1.4410   -1.9712    3.1877 H         1 <0>         0.1368
     39 H10         0.1021   -4.8328   -3.4918 H         1 <0>         0.4292
     40 H11         1.0392   -1.8157   -5.0532 H         1 <0>         0.1482
     41 H12        -1.2132   -5.4110   -5.5817 H         1 <0>         0.1392
     42 H13        -1.3433   -6.8543   -7.0861 H         1 <0>         0.0575
     43 H14        -2.8471   -5.9532   -6.7776 H         1 <0>         0.0584
     44 H15        -2.6467   -6.8564   -8.2983 H         1 <0>         0.1049
     45 H16         0.3887   -3.0645  -11.0949 H         1 <0>         0.0927
     46 H17         1.5648   -2.9401   -9.7647 H         1 <0>         0.0439
     47 H18         0.6243   -4.4353   -9.9841 H         1 <0>         0.0437
     48 H19         2.0502    0.6097   -7.2025 H         1 <0>         0.1040
     49 H20         0.9618    0.1012   -5.8890 H         1 <0>         0.0616
     50 H21         2.4659   -0.7993   -6.1974 H         1 <0>         0.0534
@<TRIPOS>BOND
     1    1    2 1
     2    1   30 1
     3    1   31 1
     4    1   32 1
     5    2   10 1
     6    2    3 2
     7    3    8 1
     8    3    4 1
     9    4    5 2
    10    4   33 1
    11    5    6 1
    12    6    7 2
    13    6   17 1
    14    7    8 1
    15    8    9 1
    16    9   10 2
    17    9   11 1
    18   11   16 ar
    19   11   12 ar
    20   12   13 ar
    21   12   34 1
    22   13   14 ar
    23   13   35 1
    24   14   15 ar
    25   14   36 1
    26   15   16 ar
    27   15   37 1
    28   16   38 1
    29   17   18 1
    30   17   39 1
    31   18   23 ar
    32   18   19 ar
    33   19   20 ar
    34   19   40 1
    35   20   21 ar
    36   20   28 1
    37   21   22 ar
    38   21   26 1
    39   22   23 ar
    40   22   24 1
    41   23   41 1
    42   24   25 1
    43   25   42 1
    44   25   43 1
    45   25   44 1
    46   26   27 1
    47   27   45 1
    48   27   46 1
    49   27   47 1
    50   28   29 1
    51   29   48 1
    52   29   49 1
    53   29   50 1
@<TRIPOS>MOLECULE
CHEMBL363283
   37    40     0     0     0
SMALL
USER_CHARGES

@<TRIPOS>ATOM
      1 C1         -0.1845    1.3796   -0.6259 C.ar      1 <0>        -0.1322
      2 C2         -1.2065    2.0659   -0.0383 C.ar      1 <0>        -0.0561
      3 C3         -2.2513    1.3689    0.5844 C.ar      1 <0>        -0.1587
      4 C4         -3.4246    1.7746    1.2656 C.2       1 <0>         0.0779
      5 N1         -4.0666    0.7128    1.6585 N.2       1 <0>        -0.2475
      6 H1         -3.6348   -1.3515    1.4375 H         1 <0>         0.4380
      7 N2         -3.3670   -0.4351    1.2665 N.pl3     1 <0>        -0.5078
      8 C5         -2.2369   -0.0372    0.5980 C.ar      1 <0>         0.1067
      9 C6         -1.1805   -0.7221   -0.0095 C.ar      1 <0>         0.1376
     10 C7         -0.1636   -0.0089   -0.6164 C.ar      1 <0>        -0.0796
     11 N3         -1.1526   -2.1217   -0.0034 N.am      1 <0>        -0.6760
     12 C8          0.0223   -2.7728   -0.1140 C.2       1 <0>         0.7003
     13 O1          1.0656   -2.1483   -0.1158 O.2       1 <0>        -0.5029
     14 N4          0.0407   -4.1160   -0.2225 N.am      1 <0>        -0.6273
     15 C9          1.2524   -4.7875   -0.3366 C.2       1 <0>         0.2771
     16 N5          2.4677   -4.2842   -0.3508 N.2       1 <0>        -0.5129
     17 C10         3.5275   -5.0633   -0.4664 C.2       1 <0>         0.0613
     18 C11         3.3040   -6.3962   -0.5689 C.2       1 <0>        -0.1938
     19 S1          1.5213   -6.4424   -0.4825 S.3       1 <0>         0.1192
     20 C12         4.2891   -7.5278   -0.7109 C.3       1 <0>        -0.0209
     21 C13         3.8073   -8.6503   -1.6452 C.3       1 <0>        -0.1349
     22 C14         4.4145   -9.6416   -0.6384 C.3       1 <0>        -0.1424
     23 C15         4.2165   -8.5548    0.4314 C.3       1 <0>        -0.1336
     24 H2          0.6152    1.9223   -1.1080 H         1 <0>         0.1333
     25 H3         -1.2105    3.1458   -0.0524 H         1 <0>         0.1325
     26 H4         -3.7350    2.7956    1.4319 H         1 <0>         0.1973
     27 H5          0.6513   -0.5358   -1.0906 H         1 <0>         0.1551
     28 H6         -1.9788   -2.6229    0.0803 H         1 <0>         0.4039
     29 H7         -0.7915   -4.6142   -0.2211 H         1 <0>         0.4226
     30 H8          4.5279   -4.6565   -0.4791 H         1 <0>         0.1753
     31 H9          5.3009   -7.1838   -0.9251 H         1 <0>         0.1169
     32 H10         2.7223   -8.7173   -1.7238 H         1 <0>         0.0815
     33 H11         4.3041   -8.6541   -2.6155 H         1 <0>         0.0755
     34 H12         3.8032  -10.5295   -0.4772 H         1 <0>         0.0720
     35 H13         5.4608   -9.8765   -0.8338 H         1 <0>         0.0854
     36 H14         5.0435   -8.4815    1.1376 H         1 <0>         0.0749
     37 H15         3.2432   -8.5957    0.9205 H         1 <0>         0.0822
@<TRIPOS>BOND
     1    1   10 ar
     2    1   24 1
     3    1    2 ar
     4    2   25 1
     5    2    3 ar
     6    3    8 ar
     7    3    4 1
     8    4    5 2
     9    4   26 1
    10    5    7 1
    11    6    7 1
    12    7    8 1
    13    8    9 ar
    14    9   11 1
    15    9   10 ar
    16   10   27 1
    17   11   12 am
    18   11   28 1
    19   12   13 2
    20   12   14 am
    21   14   15 1
    22   14   29 1
    23   15   19 1
    24   15   16 2
    25   16   17 1
    26   17   18 2
    27   17   30 1
    28   18   19 1
    29   18   20 1
    30   20   23 1
    31   20   21 1
    32   20   31 1
    33   21   22 1
    34   21   32 1
    35   21   33 1
    36   22   23 1
    37   22   34 1
    38   22   35 1
    39   23   36 1
    40   23   37 1
@<TRIPOS>MOLECULE
CHEMBL87472
   46    48     0     0     0
SMALL
USER_CHARGES

@<TRIPOS>ATOM
      1 C1          2.8403   -0.0587    3.4862 C.3       1 <0>        -0.1471
      2 C2          2.2728   -1.4362    3.8344 C.3       1 <0>        -0.0830
      3 C3          1.2966   -1.3045    5.0051 C.3       1 <0>        -0.1614
      4 C4          1.5385   -2.0072    2.6197 C.3       1 <0>        -0.0784
      5 C5          1.0858   -3.4126    2.9214 C.ar      1 <0>        -0.0254
      6 C6          1.8652   -4.4866    2.5476 C.ar      1 <0>        -0.1282
      7 C7          1.4505   -5.7804    2.8236 C.ar      1 <0>        -0.0855
      8 C8          0.2566   -6.0120    3.4738 C.ar      1 <0>        -0.1253
      9 C9         -0.5432   -4.9424    3.8592 C.ar      1 <0>         0.1050
     10 C10        -0.1190   -3.6324    3.5840 C.ar      1 <0>        -0.0461
     11 C11        -1.1669   -2.7417    4.1174 C.2       1 <0>        -0.1203
     12 C12        -2.1319   -3.5668    4.6739 C.2       1 <0>         0.3037
     13 N1         -1.7618   -4.8655    4.5095 N.pl3     1 <0>        -0.5784
     14 H1         -2.2746   -5.6298    4.8158 H         1 <0>         0.4220
     15 O1         -3.2688   -3.1470    5.2743 O.3       1 <0>        -0.4641
     16 N2         -1.1830   -1.3936    4.0725 N.2       1 <0>        -0.0500
     17 N3         -2.1724   -0.7784    3.5187 N.2       1 <0>        -0.1724
     18 C13        -3.3724   -1.4156    3.3620 C.ar      1 <0>         0.0683
     19 C14        -3.4319   -2.6501    2.7103 C.ar      1 <0>        -0.1666
     20 C15        -4.6454   -3.2870    2.5563 C.ar      1 <0>        -0.0294
     21 C16        -5.8024   -2.7064    3.0454 C.ar      1 <0>        -0.6799
     22 C17        -5.7512   -1.4839    3.6919 C.ar      1 <0>        -0.0101
     23 C18        -4.5440   -0.8379    3.8579 C.ar      1 <0>        -0.0927
     24 S1         -7.3484   -3.5273    2.8435 S.o2      1 <0>         2.7023
     25 O2         -8.3523   -2.5235    2.9051 O.2       1 <0>        -0.9536
     26 O3         -7.2052   -4.3939    1.7265 O.2       1 <0>        -0.9561
     27 N4         -7.5653   -4.4957    4.1692 N.pl3     1 <0>        -1.2496
     28 H2          3.3635    0.3482    4.3515 H         1 <0>         0.0548
     29 H3          3.5358   -0.1525    2.6521 H         1 <0>         0.0514
     30 H4          2.0259    0.6097    3.2067 H         1 <0>         0.0580
     31 H5          3.0873   -2.1046    4.1139 H         1 <0>         0.0643
     32 H6          0.8923   -2.2858    5.2533 H         1 <0>         0.0512
     33 H7          1.8198   -0.8976    5.8705 H         1 <0>         0.0422
     34 H8          0.4822   -0.6361    4.7256 H         1 <0>         0.0897
     35 H9          0.6712   -1.3866    2.3947 H         1 <0>         0.0773
     36 H10         2.2100   -2.0182    1.7613 H         1 <0>         0.0731
     37 H11         2.8023   -4.3194    2.0375 H         1 <0>         0.1318
     38 H12         2.0683   -6.6150    2.5263 H         1 <0>         0.1342
     39 H13        -0.0571   -7.0240    3.6832 H         1 <0>         0.1285
     40 H14        -4.0444   -3.1546    4.6969 H         1 <0>         0.3920
     41 H15        -2.5297   -3.1042    2.3277 H         1 <0>         0.1455
     42 H16        -4.6929   -4.2411    2.0524 H         1 <0>         0.1534
     43 H17        -6.6582   -1.0365    4.0708 H         1 <0>         0.1601
     44 H18        -4.5049    0.1141    4.3663 H         1 <0>         0.1550
     45 H19        -6.8914   -4.5217    4.8663 H         1 <0>         0.4152
     46 H20        -8.3664   -5.0369    4.2485 H         1 <0>         0.4244
@<TRIPOS>BOND
     1    1    2 1
     2    1   28 1
     3    1   29 1
     4    1   30 1
     5    2    3 1
     6    2    4 1
     7    2   31 1
     8    3   32 1
     9    3   33 1
    10    3   34 1
    11    4    5 1
    12    4   35 1
    13    4   36 1
    14    5   10 ar
    15    5    6 ar
    16    6    7 ar
    17    6   37 1
    18    7    8 ar
    19    7   38 1
    20    8    9 ar
    21    8   39 1
    22    9   13 1
    23    9   10 ar
    24   10   11 1
    25   11   12 2
    26   11   16 1
    27   12   13 1
    28   12   15 1
    29   13   14 1
    30   15   40 1
    31   16   17 2
    32   17   18 1
    33   18   23 ar
    34   18   19 ar
    35   19   20 ar
    36   19   41 1
    37   20   21 ar
    38   20   42 1
    39   21   22 ar
    40   21   24 1
    41   22   23 ar
    42   22   43 1
    43   23   44 1
    44   24   25 2
    45   24   26 2
    46   24   27 1
    47   27   45 1
    48   27   46 1
@<TRIPOS>MOLECULE
CHEMBL87472
   46    48     0     0     0
SMALL
USER_CHARGES

@<TRIPOS>ATOM
      1 C1         -0.0187    1.5258    0.0104 C.3       1 <0>        -0.1481
      2 C2          0.0021   -0.0041    0.0020 C.3       1 <0>        -0.0834
      3 C3          0.7421   -0.5109    1.2415 C.3       1 <0>        -0.1571
      4 C4         -1.4333   -0.5336    0.0129 C.3       1 <0>        -0.0781
      5 C5         -1.4159   -2.0348   -0.1192 C.ar      1 <0>        -0.0265
      6 C6         -1.5532   -2.6226   -1.3586 C.ar      1 <0>        -0.1263
      7 C7         -1.5380   -4.0034   -1.4825 C.ar      1 <0>        -0.0902
      8 C8         -1.3859   -4.8069   -0.3720 C.ar      1 <0>        -0.1219
      9 C9         -1.2456   -4.2332    0.8863 C.ar      1 <0>         0.0979
     10 C10        -1.2554   -2.8345    1.0094 C.ar      1 <0>        -0.0436
     11 C11        -1.0806   -2.5480    2.4458 C.2       1 <0>        -0.0456
     12 C12        -0.9732   -3.7777    3.0768 C.2       1 <0>         0.3468
     13 N1         -1.0810   -4.7688    2.1512 N.pl3     1 <0>        -0.5777
     14 H1         -1.0367   -5.7174    2.3488 H         1 <0>         0.4223
     15 O1         -0.8013   -3.9631    4.4055 O.3       1 <0>        -0.4430
     16 N2         -1.0346   -1.3325    3.0288 N.2       1 <0>        -0.1265
     17 N3         -0.8757   -1.2350    4.3053 N.2       1 <0>        -0.2875
     18 C13        -0.8291   -0.0025    4.8964 C.ar      1 <0>         0.1385
     19 C14        -0.9589    1.1530    4.1217 C.ar      1 <0>        -0.1509
     20 C15        -0.9113    2.3924    4.7248 C.ar      1 <0>        -0.0128
     21 C16        -0.7355    2.4933    6.0936 C.ar      1 <0>        -0.6766
     22 C17        -0.6062    1.3533    6.8673 C.ar      1 <0>        -0.0147
     23 C18        -0.6571    0.1070    6.2787 C.ar      1 <0>        -0.1027
     24 S1         -0.6754    4.0811    6.8552 S.o2      1 <0>         2.7012
     25 O2          0.0426    3.9214    8.0711 O.2       1 <0>        -0.9628
     26 O3         -0.2735    4.9996    5.8482 O.2       1 <0>        -0.9628
     27 N4         -2.2269    4.4837    7.2711 N.pl3     1 <0>        -1.2501
     28 H2          1.0039    1.9031    0.0027 H         1 <0>         0.0557
     29 H3         -0.5459    1.8868   -0.8726 H         1 <0>         0.0552
     30 H4         -0.5289    1.8773    0.9072 H         1 <0>         0.0544
     31 H5          0.5123   -0.3556   -0.8948 H         1 <0>         0.0675
     32 H6          0.7568   -1.6008    1.2356 H         1 <0>         0.0538
     33 H7          1.7647   -0.1336    1.2338 H         1 <0>         0.0442
     34 H8          0.2319   -0.1594    2.1383 H         1 <0>         0.0752
     35 H9         -1.9156   -0.2570    0.9504 H         1 <0>         0.0823
     36 H10        -1.9862   -0.1019   -0.8214 H         1 <0>         0.0731
     37 H11        -1.6734   -2.0051   -2.2365 H         1 <0>         0.1310
     38 H12        -1.6467   -4.4542   -2.4579 H         1 <0>         0.1335
     39 H13        -1.3762   -5.8814   -0.4799 H         1 <0>         0.1280
     40 H14        -1.6275   -4.0368    4.9024 H         1 <0>         0.4092
     41 H15        -1.0958    1.0757    3.0532 H         1 <0>         0.1446
     42 H16        -1.0112    3.2865    4.1271 H         1 <0>         0.1443
     43 H17        -0.4689    1.4395    7.9350 H         1 <0>         0.1491
     44 H18        -0.5602   -0.7820    6.8842 H         1 <0>         0.1431
     45 H19        -2.9549    3.8724    7.0781 H         1 <0>         0.4168
     46 H20        -2.4077    5.3308    7.7077 H         1 <0>         0.4212
@<TRIPOS>BOND
     1    1    2 1
     2    1   28 1
     3    1   29 1
     4    1   30 1
     5    2    3 1
     6    2    4 1
     7    2   31 1
     8    3   32 1
     9    3   33 1
    10    3   34 1
    11    4    5 1
    12    4   35 1
    13    4   36 1
    14    5   10 ar
    15    5    6 ar
    16    6    7 ar
    17    6   37 1
    18    7    8 ar
    19    7   38 1
    20    8    9 ar
    21    8   39 1
    22    9   13 1
    23    9   10 ar
    24   10   11 1
    25   11   12 2
    26   11   16 1
    27   12   13 1
    28   12   15 1
    29   13   14 1
    30   15   40 1
    31   16   17 2
    32   17   18 1
    33   18   23 ar
    34   18   19 ar
    35   19   20 ar
    36   19   41 1
    37   20   21 ar
    38   20   42 1
    39   21   22 ar
    40   21   24 1
    41   22   23 ar
    42   22   43 1
    43   23   44 1
    44   24   25 2
    45   24   26 2
    46   24   27 1
    47   27   45 1
    48   27   46 1
@<TRIPOS>MOLECULE
CHEMBL150867
   32    35     0     0     0
SMALL
USER_CHARGES

@<TRIPOS>ATOM
      1 C1         -0.0300    1.3670    0.0423 C.ar      1 <0>        -0.0636
      2 C2          1.1535    2.0947    0.0382 C.ar      1 <0>        -0.1113
      3 C3          2.3751    1.4387    0.0145 C.ar      1 <0>         0.0116
      4 C4          2.4067    0.0314   -0.0054 C.ar      1 <0>        -0.1989
      5 C5          1.2138   -0.6900   -0.0008 C.ar      1 <0>         0.2512
      6 C6         -0.0060   -0.0092    0.0228 C.ar      1 <0>        -0.1254
      7 N1          1.2378   -2.0806   -0.0209 N.am      1 <0>        -0.6762
      8 C7          0.1847   -2.7658   -0.5088 C.2       1 <0>         0.7084
      9 O1         -0.7416   -2.1707   -1.0244 O.2       1 <0>        -0.5700
     10 N2          0.1585   -4.1107   -0.4250 N.am      1 <0>        -0.8546
     11 C8          3.8279   -0.3817   -0.0282 C.2       1 <0>         0.4876
     12 O2          4.2489   -1.5216   -0.0496 O.2       1 <0>        -0.4373
     13 C9          4.6370    0.8530   -0.0207 C.2       1 <0>        -0.3139
     14 C10         3.7706    1.9388    0.0047 C.2       1 <0>         0.1595
     15 N3          4.5281    3.0564    0.0107 N.pl3     1 <0>        -0.4234
     16 H1          4.1935    3.9667    0.0276 H         1 <0>         0.4475
     17 N4          5.8762    2.6825   -0.0108 N.2       1 <0>        -0.2687
     18 C11         5.9555    1.3678   -0.0294 C.2       1 <0>         0.2103
     19 C12         7.2035    0.5696   -0.0550 C.2       1 <0>        -0.0709
     20 C13         8.3253    1.0228   -0.7440 C.2       1 <0>        -0.1350
     21 C14         9.4453    0.2662   -0.7442 C.2       1 <0>        -0.1749
     22 S1          8.9549   -1.1375    0.2428 S.3       1 <0>         0.0651
     23 C15         7.2825   -0.6277    0.6027 C.2       1 <0>        -0.1255
     24 H2         -0.9771    1.8856    0.0654 H         1 <0>         0.1439
     25 H3          1.1221    3.1742    0.0533 H         1 <0>         0.1354
     26 H4         -0.9325   -0.5642    0.0266 H         1 <0>         0.1637
     27 H5          2.0125   -2.5572    0.3161 H         1 <0>         0.4190
     28 H6          0.8976   -4.5855   -0.0136 H         1 <0>         0.4029
     29 H7         -0.5994   -4.6038   -0.7761 H         1 <0>         0.4225
     30 H8          8.3007    1.9652   -1.2710 H         1 <0>         0.1393
     31 H9         10.3948    0.4612   -1.2204 H         1 <0>         0.1905
     32 H10         6.5281   -1.1338    1.1866 H         1 <0>         0.1910
@<TRIPOS>BOND
     1    1    6 ar
     2    1    2 ar
     3    1   24 1
     4    2    3 ar
     5    2   25 1
     6    3   14 1
     7    3    4 ar
     8    4    5 ar
     9    4   11 1
    10    5    6 ar
    11    5    7 1
    12    6   26 1
    13    7    8 am
    14    7   27 1
    15    8    9 2
    16    8   10 am
    17   10   28 1
    18   10   29 1
    19   11   12 2
    20   11   13 1
    21   13   18 1
    22   13   14 2
    23   14   15 1
    24   15   16 1
    25   15   17 1
    26   17   18 2
    27   18   19 1
    28   19   23 2
    29   19   20 1
    30   20   21 2
    31   20   30 1
    32   21   22 1
    33   21   31 1
    34   22   23 1
    35   23   32 1
@<TRIPOS>MOLECULE
CHEMBL150867
   32    35     0     0     0
SMALL
USER_CHARGES

@<TRIPOS>ATOM
      1 C1         -0.0300    1.3701    0.0428 C.ar      1 <0>        -0.0612
      2 C2          1.1509    2.0942    0.0380 C.ar      1 <0>        -0.1100
      3 C3          2.3744    1.4372    0.0136 C.ar      1 <0>         0.0421
      4 C4          2.4088    0.0316   -0.0063 C.ar      1 <0>        -0.1976
      5 C5          1.2078   -0.6887   -0.0005 C.ar      1 <0>         0.2456
      6 C6         -0.0059   -0.0092    0.0234 C.ar      1 <0>        -0.1316
      7 N1          1.2284   -2.0807   -0.0199 N.am      1 <0>        -0.6765
      8 C7          0.1736   -2.7635   -0.5074 C.2       1 <0>         0.7078
      9 O1         -0.7513   -2.1664   -1.0234 O.2       1 <0>        -0.5703
     10 N2          0.1441   -4.1083   -0.4231 N.am      1 <0>        -0.8559
     11 C8          3.8175   -0.4110   -0.0308 C.2       1 <0>         0.4939
     12 O2          4.2073   -1.5637   -0.0522 O.2       1 <0>        -0.4509
     13 C9          4.6628    0.7882   -0.0254 C.2       1 <0>        -0.3342
     14 C10         3.7672    1.9485    0.0023 C.2       1 <0>         0.1281
     15 N3          4.5183    3.0213    0.0069 N.2       1 <0>        -0.2354
     16 H1          6.6173    3.2630   -0.0177 H         1 <0>         0.4483
     17 N4          5.8660    2.6494   -0.0162 N.pl3     1 <0>        -0.4657
     18 C11         5.9590    1.2892   -0.0362 C.2       1 <0>         0.2586
     19 C12         7.2018    0.4983   -0.0632 C.2       1 <0>        -0.1241
     20 C13         8.3145    0.8117    0.7992 C.2       1 <0>        -0.1346
     21 C14         9.3936    0.0113    0.6770 C.2       1 <0>        -0.2041
     22 S1          8.8992   -1.1413   -0.5857 S.3       1 <0>         0.2022
     23 C15         7.3524   -0.5770   -0.9084 C.2       1 <0>        -0.1859
     24 H2         -0.9767    1.8893    0.0665 H         1 <0>         0.1429
     25 H3          1.1202    3.1736    0.0530 H         1 <0>         0.1381
     26 H4         -0.9328   -0.5635    0.0273 H         1 <0>         0.1622
     27 H5          2.0019   -2.5591    0.3174 H         1 <0>         0.4182
     28 H6          0.8820   -4.5848   -0.0114 H         1 <0>         0.4021
     29 H7         -0.6151   -4.5997   -0.7739 H         1 <0>         0.4218
     30 H8          8.2859    1.6347    1.4980 H         1 <0>         0.1436
     31 H9         10.3293    0.0586    1.2142 H         1 <0>         0.1920
     32 H10         6.6387   -0.9674   -1.6188 H         1 <0>         0.1907
@<TRIPOS>BOND
     1    1    6 ar
     2    1    2 ar
     3    1   24 1
     4    2    3 ar
     5    2   25 1
     6    3   14 1
     7    3    4 ar
     8    4    5 ar
     9    4   11 1
    10    5    6 ar
    11    5    7 1
    12    6   26 1
    13    7    8 am
    14    7   27 1
    15    8    9 2
    16    8   10 am
    17   10   28 1
    18   10   29 1
    19   11   12 2
    20   11   13 1
    21   13   14 1
    22   13   18 2
    23   14   15 2
    24   15   17 1
    25   16   17 1
    26   17   18 1
    27   18   19 1
    28   19   23 2
    29   19   20 1
    30   20   21 2
    31   20   30 1
    32   21   22 1
    33   21   31 1
    34   22   23 1
    35   23   32 1
@<TRIPOS>MOLECULE
CHEMBL74637
   37    42     0     0     0
SMALL
USER_CHARGES

@<TRIPOS>ATOM
      1 C1         -0.0170    1.4028    0.0098 C.ar      1 <0>        -0.0386
      2 C2          1.1398    2.1098    0.0025 C.ar      1 <0>        -0.1465
      3 C3          2.3828    1.4464   -0.0129 C.ar      1 <0>        -0.0194
      4 C4          2.4260    0.0307   -0.0208 C.ar      1 <0>         0.0532
      5 C5          3.6696   -0.6323   -0.0366 C.ar      1 <0>        -0.1748
      6 C6          4.8578    0.1102   -0.0444 C.ar      1 <0>        -0.0625
      7 C7          4.8147    1.5127   -0.0356 C.ar      1 <0>        -0.0593
      8 C8          3.5854    2.1864   -0.0209 C.ar      1 <0>         0.1884
      9 N1          3.8294    3.5411   -0.0158 N.pl3     1 <0>        -0.5901
     10 H1          3.1436    4.2270   -0.0050 H         1 <0>         0.4253
     11 C9          5.1901    3.7861   -0.0279 C.ar      1 <0>         0.1500
     12 C10         5.8590    2.5513   -0.0402 C.ar      1 <0>        -0.1078
     13 C11         7.2524    2.5089   -0.0549 C.ar      1 <0>        -0.0372
     14 C12         7.9730    3.6824   -0.0553 C.ar      1 <0>        -0.1662
     15 C13         7.3142    4.9080   -0.0410 C.ar      1 <0>         0.1483
     16 C14         5.9313    4.9620   -0.0283 C.ar      1 <0>        -0.1662
     17 O1          8.0339    6.0604   -0.0411 O.3       1 <0>        -0.4949
     18 C15         5.9542   -0.8794   -0.0609 C.2       1 <0>         0.5788
     19 O2          7.1415   -0.6230   -0.0711 O.2       1 <0>        -0.4476
     20 N2          5.4164   -2.1123   -0.0623 N.am      1 <0>        -0.6770
     21 C16         4.0729   -2.0485   -0.0484 C.2       1 <0>         0.5956
     22 O3          3.3179   -3.0007   -0.0457 O.2       1 <0>        -0.4817
     23 C17         1.2184   -0.6967   -0.0132 C.ar      1 <0>         0.0834
     24 C18         0.0021   -0.0041    0.0020 C.ar      1 <0>        -0.1080
     25 C19        -1.0448   -1.0266    0.0060 C.2       1 <0>        -0.1972
     26 C20        -0.4257   -2.2205   -0.0065 C.2       1 <0>         0.0474
     27 N3          0.9272   -2.0383   -0.0171 N.pl3     1 <0>        -0.5580
     28 H2          1.5851   -2.7510   -0.0271 H         1 <0>         0.4275
     29 H3         -0.9624    1.9246    0.0261 H         1 <0>         0.1321
     30 H4          1.1083    3.1893    0.0082 H         1 <0>         0.1280
     31 H5          7.7652    1.5585   -0.0657 H         1 <0>         0.1457
     32 H6          9.0525    3.6514   -0.0664 H         1 <0>         0.1378
     33 H7          5.4282    5.9176   -0.0181 H         1 <0>         0.1351
     34 H8          8.2334    6.3995   -0.9244 H         1 <0>         0.3959
     35 H9          5.9282   -2.9362   -0.0720 H         1 <0>         0.4339
     36 H10        -2.1110   -0.8552    0.0172 H         1 <0>         0.1511
     37 H11        -0.9238   -3.1788   -0.0076 H         1 <0>         0.1754
@<TRIPOS>BOND
     1    1   24 ar
     2    1    2 ar
     3    1   29 1
     4    2    3 ar
     5    2   30 1
     6    3    8 ar
     7    3    4 ar
     8    4    5 ar
     9    4   23 ar
    10    5   21 1
    11    5    6 ar
    12    6    7 ar
    13    6   18 1
    14    7   12 1
    15    7    8 ar
    16    8    9 1
    17    9   10 1
    18    9   11 1
    19   11   16 ar
    20   11   12 ar
    21   12   13 ar
    22   13   14 ar
    23   13   31 1
    24   14   15 ar
    25   14   32 1
    26   15   16 ar
    27   15   17 1
    28   16   33 1
    29   17   34 1
    30   18   19 2
    31   18   20 am
    32   20   21 am
    33   20   35 1
    34   21   22 2
    35   23   27 1
    36   23   24 ar
    37   24   25 1
    38   25   26 2
    39   25   36 1
    40   26   27 1
    41   26   37 1
    42   27   28 1
@<TRIPOS>MOLECULE
CHEMBL14619
   39    41     0     0     0
SMALL
USER_CHARGES

@<TRIPOS>ATOM
      1 C1          0.5714    1.2454    0.1659 C.3       1 <0>        -0.1520
      2 C2          0.4579   -0.2804    0.1559 C.3       1 <0>        -0.1223
      3 C3         -1.0173   -0.6816    0.0944 C.3       1 <0>        -0.1179
      4 C4         -1.1308   -2.2074    0.0844 C.3       1 <0>         0.0680
      5 O1         -2.5086   -2.5821    0.0269 O.3       1 <0>        -0.3272
      6 C5         -2.7848   -3.9067    0.0110 C.ar      1 <0>         0.2658
      7 C6         -2.8782   -4.6138   -1.2002 C.ar      1 <0>        -0.2496
      8 C7         -2.7403   -4.2466   -2.5596 C.2       1 <0>         0.1017
      9 N1         -2.9286   -5.3051   -3.2929 N.2       1 <0>        -0.2314
     10 N2         -3.1960   -6.4069   -2.4724 N.pl3     1 <0>        -0.4818
     11 H1         -3.3715   -7.3115   -2.7756 H         1 <0>         0.4504
     12 C8         -3.1674   -5.9907   -1.1711 C.ar      1 <0>         0.3381
     13 N3         -3.3506   -6.6174   -0.0108 N.ar      1 <0>        -0.5021
     14 C9         -3.2714   -5.9912    1.1387 C.ar      1 <0>         0.2269
     15 C10        -2.9817   -4.6207    1.2044 C.ar      1 <0>        -0.2709
     16 C11        -2.8906   -3.9387    2.5058 C.2       1 <0>         0.4635
     17 O2         -1.9096   -4.0957    3.2072 O.2       1 <0>        -0.4365
     18 C12        -3.9915   -3.0629    2.9600 C.ar      1 <0>        -0.1611
     19 C13        -5.1692   -2.9733    2.2151 C.ar      1 <0>        -0.0586
     20 C14        -6.1925   -2.1541    2.6447 C.ar      1 <0>        -0.1325
     21 C15        -6.0538   -1.4218    3.8106 C.ar      1 <0>        -0.0839
     22 C16        -4.8894   -1.5060    4.5536 C.ar      1 <0>        -0.1329
     23 C17        -3.8607   -2.3260    4.1388 C.ar      1 <0>        -0.0590
     24 H2          1.6223    1.5313    0.2097 H         1 <0>         0.0581
     25 H3          0.1226    1.6491   -0.7416 H         1 <0>         0.0565
     26 H4          0.0502    1.6428    1.0369 H         1 <0>         0.0563
     27 H5          0.9791   -0.6777   -0.7150 H         1 <0>         0.0655
     28 H6          0.9067   -0.6841    1.0635 H         1 <0>         0.0655
     29 H7         -1.5385   -0.2842    0.9653 H         1 <0>         0.0752
     30 H8         -1.4661   -0.2779   -0.8131 H         1 <0>         0.0768
     31 H9         -0.6096   -2.6048   -0.7865 H         1 <0>         0.0627
     32 H10        -0.6820   -2.6111    0.9919 H         1 <0>         0.0615
     33 H11        -2.5171   -3.2556   -2.9265 H         1 <0>         0.2018
     34 H12        -3.4280   -6.5433    2.0536 H         1 <0>         0.1781
     35 H13        -5.2785   -3.5437    1.3046 H         1 <0>         0.1255
     36 H14        -7.1039   -2.0838    2.0696 H         1 <0>         0.1292
     37 H15        -6.8578   -0.7815    4.1421 H         1 <0>         0.1284
     38 H16        -4.7875   -0.9315    5.4624 H         1 <0>         0.1305
     39 H17        -2.9543   -2.3945    4.7221 H         1 <0>         0.1338
@<TRIPOS>BOND
     1    1    2 1
     2    1   24 1
     3    1   25 1
     4    1   26 1
     5    2    3 1
     6    2   27 1
     7    2   28 1
     8    3    4 1
     9    3   29 1
    10    3   30 1
    11    4    5 1
    12    4   31 1
    13    4   32 1
    14    5    6 1
    15    6   15 ar
    16    6    7 ar
    17    7   12 ar
    18    7    8 1
    19    8    9 2
    20    8   33 1
    21    9   10 1
    22   10   11 1
    23   10   12 1
    24   12   13 ar
    25   13   14 ar
    26   14   15 ar
    27   14   34 1
    28   15   16 1
    29   16   17 2
    30   16   18 1
    31   18   23 ar
    32   18   19 ar
    33   19   20 ar
    34   19   35 1
    35   20   21 ar
    36   20   36 1
    37   21   22 ar
    38   21   37 1
    39   22   23 ar
    40   22   38 1
    41   23   39 1
@<TRIPOS>MOLECULE
CHEMBL14619
   39    41     0     0     0
SMALL
USER_CHARGES

@<TRIPOS>ATOM
      1 C1          0.5712    1.2458    0.1685 C.3       1 <0>        -0.1521
      2 C2          0.4579   -0.2799    0.1584 C.3       1 <0>        -0.1223
      3 C3         -1.0172   -0.6813    0.0958 C.3       1 <0>        -0.1179
      4 C4         -1.1306   -2.2071    0.0857 C.3       1 <0>         0.0683
      5 O1         -2.5083   -2.5820    0.0272 O.3       1 <0>        -0.3306
      6 C5         -2.7840   -3.9049    0.0110 C.ar      1 <0>         0.2748
      7 C6         -2.8771   -4.6173   -1.2063 C.ar      1 <0>        -0.2872
      8 C7         -2.7470   -4.2855   -2.5420 C.2       1 <0>         0.1332
      9 N1         -2.9462   -5.3972   -3.2599 N.pl3     1 <0>        -0.4061
     10 N2         -3.2098   -6.4752   -2.4083 N.2       1 <0>        -0.2824
     11 H1         -2.9129   -5.4479   -4.2280 H         1 <0>         0.4534
     12 C8         -3.1794   -6.0563   -1.1585 C.ar      1 <0>         0.2910
     13 N3         -3.3588   -6.6556    0.0337 N.ar      1 <0>        -0.4706
     14 C9         -3.2721   -5.9949    1.1555 C.ar      1 <0>         0.2399
     15 C10        -2.9815   -4.6184    1.2007 C.ar      1 <0>        -0.2794
     16 C11        -2.8902   -3.9289    2.4948 C.2       1 <0>         0.4631
     17 O2         -1.9083   -4.0805    3.1970 O.2       1 <0>        -0.4389
     18 C12        -3.9917   -3.0506    2.9438 C.ar      1 <0>        -0.1598
     19 C13        -5.1698   -2.9670    2.1992 C.ar      1 <0>        -0.0585
     20 C14        -6.1935   -2.1457    2.6237 C.ar      1 <0>        -0.1331
     21 C15        -6.0545   -1.4053    3.7845 C.ar      1 <0>        -0.0852
     22 C16        -4.8894   -1.4832    4.5269 C.ar      1 <0>        -0.1334
     23 C17        -3.8606   -2.3056    4.1173 C.ar      1 <0>        -0.0599
     24 H2          1.6221    1.5318    0.2131 H         1 <0>         0.0582
     25 H3          0.1231    1.6495   -0.7394 H         1 <0>         0.0559
     26 H4          0.0493    1.6432    1.0390 H         1 <0>         0.0567
     27 H5          0.9798   -0.6773   -0.7121 H         1 <0>         0.0646
     28 H6          0.9060   -0.6836    1.0663 H         1 <0>         0.0662
     29 H7         -1.5391   -0.2840    0.9663 H         1 <0>         0.0758
     30 H8         -1.4654   -0.2777   -0.8121 H         1 <0>         0.0751
     31 H9         -0.6086   -2.6044   -0.7849 H         1 <0>         0.0600
     32 H10        -0.6824   -2.6108    0.9936 H         1 <0>         0.0626
     33 H11        -2.5244   -3.3047   -2.9357 H         1 <0>         0.1984
     34 H12        -3.4250   -6.5247    2.0841 H         1 <0>         0.1745
     35 H13        -5.2792   -3.5438    1.2927 H         1 <0>         0.1262
     36 H14        -7.1053   -2.0801    2.0487 H         1 <0>         0.1285
     37 H15        -6.8589   -0.7635    4.1122 H         1 <0>         0.1277
     38 H16        -4.7873   -0.9024    5.4317 H         1 <0>         0.1299
     39 H17        -2.9538   -2.3695    4.7004 H         1 <0>         0.1334
@<TRIPOS>BOND
     1    1    2 1
     2    1   24 1
     3    1   25 1
     4    1   26 1
     5    2    3 1
     6    2   27 1
     7    2   28 1
     8    3    4 1
     9    3   29 1
    10    3   30 1
    11    4    5 1
    12    4   31 1
    13    4   32 1
    14    5    6 1
    15    6   15 ar
    16    6    7 ar
    17    7   12 ar
    18    7    8 2
    19    8   33 1
    20    8    9 1
    21    9   11 1
    22    9   10 1
    23   10   12 2
    24   12   13 ar
    25   13   14 ar
    26   14   15 ar
    27   14   34 1
    28   15   16 1
    29   16   17 2
    30   16   18 1
    31   18   23 ar
    32   18   19 ar
    33   19   20 ar
    34   19   35 1
    35   20   21 ar
    36   20   36 1
    37   21   22 ar
    38   21   37 1
    39   22   23 ar
    40   22   38 1
    41   23   39 1
@<TRIPOS>MOLECULE
CHEMBL381565
   59    62     0     0     0
SMALL
USER_CHARGES

@<TRIPOS>ATOM
      1 C1         -0.1034    1.5236    0.0602 C.3       1 <0>        -0.1535
      2 C2         -0.0674   -0.0059    0.0428 C.3       1 <0>        -0.1217
      3 C3          0.6723   -0.5127    1.2826 C.3       1 <0>        -0.1327
      4 C4          0.7083   -2.0422    1.2652 C.3       1 <0>         0.1361
      5 N1          1.4165   -2.5275    2.4522 N.am      1 <0>        -0.7427
      6 C5          1.5719   -3.8516    2.6498 C.2       1 <0>         0.7343
      7 O1          1.1243   -4.6434    1.8429 O.2       1 <0>        -0.5785
      8 N2          2.2235   -4.2981    3.7419 N.am      1 <0>        -0.6318
      9 C6          2.4770   -5.6992    4.0917 C.3       1 <0>         0.2222
     10 C7          3.2361   -5.7176    5.3936 C.2       1 <0>        -0.3130
     11 C8          3.4345   -4.4013    5.8144 C.2       1 <0>         0.0674
     12 N3          4.0952   -4.4271    6.9459 N.2       1 <0>        -0.2496
     13 N4          4.3401   -5.7636    7.2840 N.pl3     1 <0>        -0.4531
     14 H1          4.8108   -6.0758    8.0726 H         1 <0>         0.4558
     15 C9          3.8040   -6.5422    6.3170 C.2       1 <0>         0.3610
     16 N5          3.8279   -7.9360    6.2734 N.am      1 <0>        -0.6467
     17 C10         4.4282   -8.6309    7.2600 C.2       1 <0>         0.5196
     18 O2          4.9476   -8.0441    8.1858 O.2       1 <0>        -0.5153
     19 C11         4.4540  -10.1370    7.2129 C.3       1 <0>        -0.0915
     20 C12         5.1792  -10.6651    8.4238 C.ar      1 <0>        -0.1041
     21 C13         6.5467  -10.8648    8.3763 C.ar      1 <0>        -0.0713
     22 C14         7.2142  -11.3487    9.4844 C.ar      1 <0>        -0.1551
     23 C15         6.5107  -11.6342   10.6472 C.ar      1 <0>         0.1715
     24 C16         5.1375  -11.4321   10.6917 C.ar      1 <0>        -0.1569
     25 C17         4.4766  -10.9434    9.5818 C.ar      1 <0>        -0.0731
     26 N6          7.1840  -12.1250   11.7713 N.am      1 <0>        -0.5612
     27 C18         6.5572  -12.3501   13.0791 C.3       1 <0>         0.0932
     28 C19         7.5266  -13.2762   13.8467 C.3       1 <0>        -0.1317
     29 C20         8.8765  -12.9544   13.1648 C.3       1 <0>        -0.1540
     30 C21         8.4866  -12.4562   11.7906 C.2       1 <0>         0.5153
     31 O3          9.2404  -12.3661   10.8447 O.2       1 <0>        -0.5077
     32 C22         2.8168   -3.4735    4.7989 C.3       1 <0>         0.1946
     33 H2          0.9154    1.9111    0.0592 H         1 <0>         0.0546
     34 H3         -0.6303    1.8847   -0.8230 H         1 <0>         0.0565
     35 H4         -0.6209    1.8647    0.9569 H         1 <0>         0.0546
     36 H5         -1.0862   -0.3933    0.0439 H         1 <0>         0.0660
     37 H6          0.4501   -0.3469   -0.8538 H         1 <0>         0.0660
     38 H7          1.6911   -0.1253    1.2815 H         1 <0>         0.0698
     39 H8          0.1547   -0.1716    2.1792 H         1 <0>         0.0698
     40 H9         -0.3105   -2.4296    1.2662 H         1 <0>         0.0685
     41 H10         1.2258   -2.3833    0.3685 H         1 <0>         0.0685
     42 H11         1.7736   -1.8959    3.0960 H         1 <0>         0.3976
     43 H12         1.5309   -6.2277    4.2083 H         1 <0>         0.0747
     44 H13         3.0717   -6.1730    3.3107 H         1 <0>         0.0745
     45 H14         3.4126   -8.4053    5.5331 H         1 <0>         0.4314
     46 H15         3.4327  -10.5178    7.2063 H         1 <0>         0.1141
     47 H16         4.9694  -10.4634    6.3097 H         1 <0>         0.1144
     48 H17         7.0932  -10.6425    7.4717 H         1 <0>         0.1256
     49 H18         8.2822  -11.5051    9.4464 H         1 <0>         0.1558
     50 H19         4.5875  -11.6535   11.5944 H         1 <0>         0.1269
     51 H20         3.4093  -10.7821    9.6172 H         1 <0>         0.1257
     52 H21         6.4397  -11.4048   13.6089 H         1 <0>         0.0833
     53 H22         5.5897  -12.8365   12.9550 H         1 <0>         0.0882
     54 H23         7.5539  -13.0204   14.9059 H         1 <0>         0.0983
     55 H24         7.2586  -14.3234   13.7067 H         1 <0>         0.0872
     56 H25         9.4088  -12.1810   13.7184 H         1 <0>         0.1114
     57 H26         9.4863  -13.8541   13.0824 H         1 <0>         0.1091
     58 H27         3.5828   -2.8244    4.3746 H         1 <0>         0.0910
     59 H28         2.0433   -2.8707    5.2749 H         1 <0>         0.0907
@<TRIPOS>BOND
     1    1    2 1
     2    1   33 1
     3    1   34 1
     4    1   35 1
     5    2    3 1
     6    2   36 1
     7    2   37 1
     8    3    4 1
     9    3   38 1
    10    3   39 1
    11    4    5 1
    12    4   40 1
    13    4   41 1
    14    5    6 am
    15    5   42 1
    16    6    7 2
    17    6    8 am
    18    8   32 1
    19    8    9 1
    20    9   10 1
    21    9   43 1
    22    9   44 1
    23   10   15 2
    24   10   11 1
    25   11   12 2
    26   11   32 1
    27   12   13 1
    28   13   14 1
    29   13   15 1
    30   15   16 1
    31   16   17 am
    32   16   45 1
    33   17   18 2
    34   17   19 1
    35   19   20 1
    36   19   46 1
    37   19   47 1
    38   20   25 ar
    39   20   21 ar
    40   21   22 ar
    41   21   48 1
    42   22   23 ar
    43   22   49 1
    44   23   24 ar
    45   23   26 1
    46   24   25 ar
    47   24   50 1
    48   25   51 1
    49   26   30 am
    50   26   27 1
    51   27   28 1
    52   27   52 1
    53   27   53 1
    54   28   29 1
    55   28   54 1
    56   28   55 1
    57   29   30 1
    58   29   56 1
    59   29   57 1
    60   30   31 2
    61   32   58 1
    62   32   59 1
@<TRIPOS>MOLECULE
CHEMBL381565
   59    62     0     0     0
SMALL
USER_CHARGES

@<TRIPOS>ATOM
      1 C1         -0.0194    1.5255   -0.0874 C.3       1 <0>        -0.1535
      2 C2          0.0015   -0.0043   -0.0781 C.3       1 <0>        -0.1219
      3 C3         -1.4339   -0.5339   -0.0677 C.3       1 <0>        -0.1322
      4 C4         -1.4130   -2.0637   -0.0584 C.3       1 <0>         0.1355
      5 N1         -2.7874   -2.5708   -0.0485 N.am      1 <0>        -0.7427
      6 C5         -3.0155   -3.8991   -0.0392 C.2       1 <0>         0.7346
      7 O1         -2.0807   -4.6765   -0.0391 O.2       1 <0>        -0.5744
      8 N2         -4.2800   -4.3656   -0.0300 N.am      1 <0>        -0.6317
      9 C6         -4.6989   -5.7718   -0.0134 C.3       1 <0>         0.2114
     10 C7         -6.2066   -5.7955   -0.0077 C.2       1 <0>        -0.2810
     11 C8         -6.6736   -4.5297   -0.0197 C.2       1 <0>         0.0707
     12 N3         -8.0247   -4.5856   -0.0142 N.pl3     1 <0>        -0.4432
     13 N4         -8.4026   -5.9337    0.0017 N.2       1 <0>        -0.2501
     14 H1         -8.6267   -3.8250   -0.0199 H         1 <0>         0.4452
     15 C9         -7.3132   -6.6638    0.0056 C.2       1 <0>         0.3387
     16 N5         -7.2607   -8.0644    0.0201 N.am      1 <0>        -0.6428
     17 C10        -8.4019   -8.7814    0.0320 C.2       1 <0>         0.5057
     18 O2         -9.4743   -8.2147    0.0302 O.2       1 <0>        -0.4765
     19 C11        -8.3454  -10.2873    0.0476 C.3       1 <0>        -0.0927
     20 C12        -9.7464  -10.8424    0.0587 C.ar      1 <0>        -0.0979
     21 C13       -10.3854  -11.0786    1.2621 C.ar      1 <0>        -0.0721
     22 C14       -11.6693  -11.5872    1.2758 C.ar      1 <0>        -0.1548
     23 C15       -12.3188  -11.8611    0.0793 C.ar      1 <0>         0.1677
     24 C16       -11.6746  -11.6223   -1.1276 C.ar      1 <0>        -0.1567
     25 C17       -10.3924  -11.1090   -1.1345 C.ar      1 <0>        -0.0739
     26 N6        -13.6195  -12.3769    0.0897 N.am      1 <0>        -0.5605
     27 C18       -14.4341  -12.5934   -1.1118 C.3       1 <0>         0.0935
     28 C19       -15.5658  -13.5501   -0.6755 C.3       1 <0>        -0.1317
     29 C20       -15.6565  -13.2605    0.8407 C.3       1 <0>        -0.1539
     30 C21       -14.2813  -12.7432    1.2008 C.2       1 <0>         0.5148
     31 O3        -13.8409  -12.6675    2.3284 O.2       1 <0>        -0.5087
     32 C22        -5.5120   -3.5684   -0.0283 C.3       1 <0>         0.1816
     33 H2          1.0032    1.9028   -0.0948 H         1 <0>         0.0570
     34 H3         -0.5425    1.8764   -0.9769 H         1 <0>         0.0545
     35 H4         -0.5337    1.8873    0.8030 H         1 <0>         0.0545
     36 H5          0.5158   -0.3660   -0.9685 H         1 <0>         0.0664
     37 H6          0.5247   -0.3551    0.8114 H         1 <0>         0.0664
     38 H7         -1.9482   -0.1721    0.8226 H         1 <0>         0.0694
     39 H8         -1.9570   -0.1830   -0.9573 H         1 <0>         0.0694
     40 H9         -0.8987   -2.4255   -0.9488 H         1 <0>         0.0692
     41 H10        -0.8898   -2.4145    0.8311 H         1 <0>         0.0693
     42 H11        -3.5332   -1.9506   -0.0486 H         1 <0>         0.3965
     43 H12        -4.3242   -6.2802   -0.9018 H         1 <0>         0.0778
     44 H13        -4.3161   -6.2614    0.8821 H         1 <0>         0.0778
     45 H14        -6.4031   -8.5176    0.0216 H         1 <0>         0.4229
     46 H15        -7.8218  -10.6404   -0.8408 H         1 <0>         0.1086
     47 H16        -7.8150  -10.6218    0.9391 H         1 <0>         0.1088
     48 H17        -9.8797  -10.8654    2.1923 H         1 <0>         0.1251
     49 H18       -12.1675  -11.7722    2.2160 H         1 <0>         0.1548
     50 H19       -12.1769  -11.8346   -2.0598 H         1 <0>         0.1257
     51 H20        -9.8924  -10.9193   -2.0727 H         1 <0>         0.1252
     52 H21       -14.8519  -11.6487   -1.4595 H         1 <0>         0.0828
     53 H22       -13.8336  -13.0528   -1.8969 H         1 <0>         0.0880
     54 H23       -16.5014  -13.3018   -1.1767 H         1 <0>         0.0977
     55 H24       -15.2908  -14.5888   -0.8585 H         1 <0>         0.0868
     56 H25       -16.4167  -12.5052    1.0400 H         1 <0>         0.1108
     57 H26       -15.8731  -14.1757    1.3916 H         1 <0>         0.1084
     58 H27        -5.5439   -2.9384    0.8606 H         1 <0>         0.0900
     59 H28        -5.5534   -2.9492   -0.9243 H         1 <0>         0.0897
@<TRIPOS>BOND
     1    1    2 1
     2    1   33 1
     3    1   34 1
     4    1   35 1
     5    2    3 1
     6    2   36 1
     7    2   37 1
     8    3    4 1
     9    3   38 1
    10    3   39 1
    11    4    5 1
    12    4   40 1
    13    4   41 1
    14    5    6 am
    15    5   42 1
    16    6    7 2
    17    6    8 am
    18    8   32 1
    19    8    9 1
    20    9   43 1
    21    9   44 1
    22    9   10 1
    23   10   15 1
    24   10   11 2
    25   11   32 1
    26   11   12 1
    27   12   13 1
    28   12   14 1
    29   13   15 2
    30   15   16 1
    31   16   17 am
    32   16   45 1
    33   17   18 2
    34   17   19 1
    35   19   20 1
    36   19   46 1
    37   19   47 1
    38   20   25 ar
    39   20   21 ar
    40   21   22 ar
    41   21   48 1
    42   22   23 ar
    43   22   49 1
    44   23   24 ar
    45   23   26 1
    46   24   25 ar
    47   24   50 1
    48   25   51 1
    49   26   30 am
    50   26   27 1
    51   27   28 1
    52   27   52 1
    53   27   53 1
    54   28   29 1
    55   28   54 1
    56   28   55 1
    57   29   30 1
    58   29   56 1
    59   29   57 1
    60   30   31 2
    61   32   58 1
    62   32   59 1
@<TRIPOS>MOLECULE
CHEMBL332575
   38    43     0     0     0
SMALL
USER_CHARGES

@<TRIPOS>ATOM
      1 C1         -0.0164    1.3599    0.0095 C.ar      1 <0>        -0.1037
      2 C2          1.1695    2.0839    0.0021 C.ar      1 <0>        -0.1125
      3 C3          2.3779    1.4473   -0.0460 C.ar      1 <0>        -0.0849
      4 C4          2.4344    0.0545   -0.1132 C.ar      1 <0>        -0.0461
      5 C5          1.2286   -0.6832   -0.0129 C.ar      1 <0>        -0.0447
      6 C6          0.0021   -0.0041    0.0020 C.ar      1 <0>        -0.1099
      7 C7          1.2716   -2.0917    0.0974 C.ar      1 <0>        -0.0839
      8 C8          2.4454   -2.7558    0.0804 C.ar      1 <0>        -0.1138
      9 C9          3.6733   -2.0801   -0.0887 C.ar      1 <0>        -0.0419
     10 C10         3.6934   -0.6755   -0.2711 C.ar      1 <0>         0.0585
     11 C11         4.8945   -0.0448   -0.6310 C.ar      1 <0>        -0.1594
     12 C12         6.0977   -0.7723   -0.5910 C.ar      1 <0>        -0.0653
     13 C13         6.0921   -2.1463   -0.3163 C.ar      1 <0>        -0.0528
     14 C14         4.8816   -2.8074   -0.0664 C.ar      1 <0>         0.1848
     15 N1          5.1488   -4.1366    0.1667 N.pl3     1 <0>        -0.5950
     16 H1          4.4815   -4.8084    0.3745 H         1 <0>         0.4237
     17 C15         6.5055   -4.3806    0.0623 C.ar      1 <0>         0.1344
     18 C16         7.1490   -3.1689   -0.2364 C.ar      1 <0>        -0.1018
     19 C17         8.5329   -3.1353   -0.3941 C.ar      1 <0>        -0.0521
     20 C18         9.2656   -4.2952   -0.2617 C.ar      1 <0>        -0.1434
     21 C19         8.6312   -5.4926    0.0299 C.ar      1 <0>        -0.0759
     22 C20         7.2631   -5.5395    0.1915 C.ar      1 <0>        -0.1383
     23 C21         7.1721    0.2036   -0.8642 C.2       1 <0>         0.5776
     24 O1          8.3647   -0.0230   -0.8363 O.2       1 <0>        -0.4540
     25 N2          6.6073    1.3858   -1.1615 N.am      1 <0>        -0.6823
     26 C22         5.2644    1.2924   -1.1260 C.2       1 <0>         0.5826
     27 O2          4.5070    2.1701   -1.4896 O.2       1 <0>        -0.4542
     28 H2         -0.9621    1.8800    0.0147 H         1 <0>         0.1277
     29 H3          1.1354    3.1633    0.0335 H         1 <0>         0.1286
     30 H4          3.2819    2.0332    0.0179 H         1 <0>         0.1385
     31 H5         -0.9238   -0.5605    0.0079 H         1 <0>         0.1316
     32 H6          0.3492   -2.6431    0.1996 H         1 <0>         0.1345
     33 H7          2.4456   -3.8296    0.2013 H         1 <0>         0.1261
     34 H8          9.0313   -2.2052   -0.6209 H         1 <0>         0.1408
     35 H9         10.3375   -4.2709   -0.3864 H         1 <0>         0.1317
     36 H10         9.2133   -6.3968    0.1285 H         1 <0>         0.1336
     37 H11         6.7791   -6.4773    0.4188 H         1 <0>         0.1284
     38 H12         7.0948    2.1970   -1.3707 H         1 <0>         0.4329
@<TRIPOS>BOND
     1    1    6 ar
     2    1    2 ar
     3    1   28 1
     4    2    3 ar
     5    2   29 1
     6    3    4 ar
     7    3   30 1
     8    4   10 ar
     9    4    5 ar
    10    5    6 ar
    11    5    7 ar
    12    6   31 1
    13    7    8 ar
    14    7   32 1
    15    8    9 ar
    16    8   33 1
    17    9   14 ar
    18    9   10 ar
    19   10   11 ar
    20   11   26 1
    21   11   12 ar
    22   12   13 ar
    23   12   23 1
    24   13   18 1
    25   13   14 ar
    26   14   15 1
    27   15   16 1
    28   15   17 1
    29   17   22 ar
    30   17   18 ar
    31   18   19 ar
    32   19   20 ar
    33   19   34 1
    34   20   21 ar
    35   20   35 1
    36   21   22 ar
    37   21   36 1
    38   22   37 1
    39   23   24 2
    40   23   25 am
    41   25   26 am
    42   25   38 1
    43   26   27 2
@<TRIPOS>MOLECULE
CHEMBL58224
   49    53     0     0     0
SMALL
USER_CHARGES

@<TRIPOS>ATOM
      1 C1         -0.1239    1.7873   -0.1607 C.ar      1 <0>        -0.0725
      2 C2          1.1178    2.4010   -0.1768 C.ar      1 <0>        -0.1377
      3 C3          2.2673    1.6375   -0.1608 C.ar      1 <0>        -0.0380
      4 C4          2.1733    0.2499   -0.1284 C.ar      1 <0>        -0.0949
      5 C5          0.9189   -0.3747   -0.1120 C.ar      1 <0>         0.1552
      6 C6         -0.2280    0.4116   -0.1287 C.ar      1 <0>        -0.1275
      7 N1          1.0956   -1.7526   -0.0799 N.am      1 <0>        -0.6511
      8 C7          2.3991   -2.0793   -0.0739 C.2       1 <0>         0.5534
      9 O1          2.8538   -3.2091   -0.0483 O.2       1 <0>        -0.4981
     10 C8          3.1797   -0.8348   -0.1042 C.2       1 <0>        -0.1788
     11 C9          4.5542   -0.7055   -0.1091 C.2       1 <0>         0.0555
     12 C10         5.3703   -1.8482   -0.2578 C.2       1 <0>         0.0010
     13 C11         6.5879   -2.0481    0.3263 C.2       1 <0>        -0.0749
     14 C12         7.0450   -3.3265   -0.1024 C.2       1 <0>        -0.2808
     15 C13         6.0901   -3.8527   -0.9239 C.2       1 <0>         0.1424
     16 N2          5.0751   -2.9683   -1.0176 N.pl3     1 <0>        -0.5101
     17 H1          4.2664   -3.0958   -1.5379 H         1 <0>         0.4289
     18 C14         8.3533   -3.8386    0.3562 C.2       1 <0>         0.5612
     19 O2          8.7161   -4.9840    0.1733 O.2       1 <0>        -0.4449
     20 O3          9.1194   -2.9105    1.0032 O.3       1 <0>        -0.3610
     21 C15         8.4392   -2.0821    1.9510 C.3       1 <0>         0.0751
     22 C16         7.4036   -1.1878    1.2550 C.3       1 <0>        -0.0902
     23 C17         3.6187    2.3042   -0.1787 C.3       1 <0>        -0.0683
     24 C18         3.6966    3.3344    0.9516 C.3       1 <0>        -0.1431
     25 C19         5.0402    4.0631    0.8786 C.3       1 <0>        -0.0085
     26 N3          5.1616    4.7445   -0.4158 N.4       1 <0>        -0.5062
     27 C20         5.1599    3.7562   -1.5011 C.3       1 <0>        -0.0084
     28 C21         3.8209    3.0158   -1.5196 C.3       1 <0>        -0.1423
     29 H2         -1.0192    2.3914   -0.1689 H         1 <0>         0.1381
     30 H3          1.1864    3.4786   -0.2023 H         1 <0>         0.1283
     31 H4         -1.2018   -0.0551   -0.1164 H         1 <0>         0.1350
     32 H5          0.3704   -2.3966   -0.0634 H         1 <0>         0.4244
     33 H6          5.0052    0.2696    0.0009 H         1 <0>         0.1537
     34 H7          6.1369   -4.8150   -1.4119 H         1 <0>         0.1900
     35 H8          7.9337   -2.7140    2.6812 H         1 <0>         0.0695
     36 H9          9.1670   -1.4541    2.4649 H         1 <0>         0.1179
     37 H10         7.9126   -0.4109    0.6845 H         1 <0>         0.0929
     38 H11         6.7524   -0.7308    2.0001 H         1 <0>         0.0948
     39 H12         4.3973    1.5534   -0.0435 H         1 <0>         0.0995
     40 H13         2.8856    4.0547    0.8441 H         1 <0>         0.0951
     41 H14         3.6091    2.8277    1.9127 H         1 <0>         0.1167
     42 H15         5.0990    4.7972    1.6821 H         1 <0>         0.1370
     43 H16         5.8504    3.3420    0.9865 H         1 <0>         0.1318
     44 H17         4.3842    5.3763   -0.5364 H         1 <0>         0.4287
     45 H18         5.3071    4.2639   -2.4543 H         1 <0>         0.1366
     46 H19         5.9676    3.0417   -1.3424 H         1 <0>         0.1317
     47 H20         3.8223    2.2813   -2.3249 H         1 <0>         0.1146
     48 H21         3.0125    3.7295   -1.6784 H         1 <0>         0.0950
     49 H22         6.0242    5.2674   -0.4398 H         1 <0>         0.4334
@<TRIPOS>BOND
     1    1    6 ar
     2    1    2 ar
     3    1   29 1
     4    2    3 ar
     5    2   30 1
     6    3    4 ar
     7    3   23 1
     8    4   10 1
     9    4    5 ar
    10    5    6 ar
    11    5    7 1
    12    6   31 1
    13    7    8 am
    14    7   32 1
    15    8    9 2
    16    8   10 1
    17   10   11 2
    18   11   12 1
    19   11   33 1
    20   12   16 1
    21   12   13 2
    22   13   22 1
    23   13   14 1
    24   14   15 2
    25   14   18 1
    26   15   16 1
    27   15   34 1
    28   16   17 1
    29   18   19 2
    30   18   20 1
    31   20   21 1
    32   21   22 1
    33   21   35 1
    34   21   36 1
    35   22   37 1
    36   22   38 1
    37   23   28 1
    38   23   24 1
    39   23   39 1
    40   24   25 1
    41   24   40 1
    42   24   41 1
    43   25   26 1
    44   25   42 1
    45   25   43 1
    46   26   27 1
    47   26   44 1
    48   26   49 1
    49   27   28 1
    50   27   45 1
    51   27   46 1
    52   28   47 1
    53   28   48 1
@<TRIPOS>MOLECULE
CHEMBL180431
   60    64     0     0     0
SMALL
USER_CHARGES

@<TRIPOS>ATOM
      1 C1          0.2769    1.4385    0.1371 C.3       1 <0>         0.0182
      2 O1          0.3885    0.0143    0.1683 O.3       1 <0>        -0.2929
      3 C2          0.7949   -0.5974   -0.9738 C.ar      1 <0>         0.1799
      4 C3          1.0861    0.1732   -2.1045 C.ar      1 <0>        -0.2071
      5 C4          1.4950   -0.4123   -3.2626 C.ar      1 <0>        -0.0253
      6 C5          1.6280   -1.8077   -3.3275 C.ar      1 <0>        -0.2345
      7 C6          2.0475   -2.4606   -4.5004 C.ar      1 <0>         0.2452
      8 N1          2.1498   -3.7734   -4.4871 N.ar      1 <0>        -0.5633
      9 C7          1.8667   -4.4841   -3.3969 C.ar      1 <0>         0.5661
     10 N2          1.4692   -3.9276   -2.2691 N.ar      1 <0>        -0.5576
     11 C8          1.3350   -2.5974   -2.1849 C.ar      1 <0>         0.2432
     12 C9          0.9209   -1.9692   -1.0035 C.ar      1 <0>        -0.1224
     13 C10         0.6105   -2.7873    0.2234 C.3       1 <0>        -0.0331
     14 C11        -0.8355   -2.5161    0.6874 C.3       1 <0>        -0.1131
     15 C12        -0.7493   -2.5421    2.2337 C.3       1 <0>        -0.1220
     16 C13         0.6113   -1.8563    2.5118 C.3       1 <0>        -0.1185
     17 C14         1.5304   -2.3678    1.3833 C.3       1 <0>        -0.1085
     18 N3          1.9944   -5.8611   -3.4497 N.pl3     1 <0>        -0.6406
     19 C15         2.5248   -6.4721   -4.5932 C.ar      1 <0>         0.1384
     20 C16         3.5875   -5.8830   -5.2655 C.ar      1 <0>        -0.0620
     21 C17         4.1103   -6.4852   -6.3927 C.ar      1 <0>        -0.1635
     22 C18         3.5738   -7.6802   -6.8537 C.ar      1 <0>         0.1770
     23 C19         2.5113   -8.2696   -6.1810 C.ar      1 <0>        -0.1622
     24 C20         1.9916   -7.6698   -5.0511 C.ar      1 <0>        -0.0988
     25 N4          4.1034   -8.2904   -7.9964 N.pl3     1 <0>        -0.6461
     26 C21         3.4789   -9.4923   -8.5705 C.3       1 <0>         0.0991
     27 C22         3.2675   -9.2606  -10.0703 C.3       1 <0>        -0.0237
     28 N5          4.5441   -8.8855  -10.6913 N.4       1 <0>        -0.5037
     29 C23         5.0028   -7.5984  -10.1535 C.3       1 <0>        -0.0235
     30 C24         5.2968   -7.7445   -8.6611 C.3       1 <0>         0.0979
     31 H1          1.2479    1.8740   -0.0988 H         1 <0>         0.0590
     32 H2         -0.4465    1.7297   -0.6245 H         1 <0>         0.0590
     33 H3         -0.0558    1.7983    1.1107 H         1 <0>         0.1055
     34 H4          0.9847    1.2474   -2.0576 H         1 <0>         0.1389
     35 H5          1.7159    0.1943   -4.1284 H         1 <0>         0.1391
     36 H6          2.2802   -1.8978   -5.3923 H         1 <0>         0.1773
     37 H7          0.7415   -3.8477    0.0077 H         1 <0>         0.0907
     38 H8         -1.1705   -1.5387    0.3404 H         1 <0>         0.0713
     39 H9         -1.5042   -3.2989    0.3294 H         1 <0>         0.0588
     40 H10        -1.5666   -1.9722    2.6757 H         1 <0>         0.0642
     41 H11        -0.7478   -3.5675    2.6034 H         1 <0>         0.0634
     42 H12         0.5100   -0.7723    2.4594 H         1 <0>         0.0697
     43 H13         0.9985   -2.1575    3.4852 H         1 <0>         0.0594
     44 H14         2.1072   -3.2248    1.7311 H         1 <0>         0.0594
     45 H15         2.2014   -1.5724    1.0588 H         1 <0>         0.0595
     46 H16         1.7165   -6.4032   -2.6948 H         1 <0>         0.4251
     47 H17         4.0048   -4.9537   -4.9070 H         1 <0>         0.1330
     48 H18         4.9364   -6.0267   -6.9159 H         1 <0>         0.1246
     49 H19         2.0937   -9.1988   -6.5397 H         1 <0>         0.1261
     50 H20         1.1678   -8.1300   -4.5258 H         1 <0>         0.1308
     51 H21         4.1326  -10.3516   -8.4212 H         1 <0>         0.0872
     52 H22         2.5178   -9.6714   -8.0885 H         1 <0>         0.1259
     53 H23         2.8945  -10.1756  -10.5304 H         1 <0>         0.1430
     54 H24         2.5432   -8.4591  -10.2157 H         1 <0>         0.1343
     55 H25         5.2336   -9.5955  -10.4951 H         1 <0>         0.4281
     56 H26         5.9084   -7.2887  -10.6750 H         1 <0>         0.1433
     57 H27         4.2260   -6.8472  -10.2964 H         1 <0>         0.1342
     58 H28         5.5370   -6.7687   -8.2390 H         1 <0>         0.1267
     59 H29         6.1372   -8.4243   -8.5211 H         1 <0>         0.0869
     60 H30         4.4207   -8.8067  -11.6896 H         1 <0>         0.4330
@<TRIPOS>BOND
     1    1    2 1
     2    1   31 1
     3    1   32 1
     4    1   33 1
     5    2    3 1
     6    3   12 ar
     7    3    4 ar
     8    4    5 ar
     9    4   34 1
    10    5    6 ar
    11    5   35 1
    12    6   11 ar
    13    6    7 ar
    14    7    8 ar
    15    7   36 1
    16    8    9 ar
    17    9   10 ar
    18    9   18 1
    19   10   11 ar
    20   11   12 ar
    21   12   13 1
    22   13   17 1
    23   13   14 1
    24   13   37 1
    25   14   15 1
    26   14   38 1
    27   14   39 1
    28   15   16 1
    29   15   40 1
    30   15   41 1
    31   16   17 1
    32   16   42 1
    33   16   43 1
    34   17   44 1
    35   17   45 1
    36   18   19 1
    37   18   46 1
    38   19   24 ar
    39   19   20 ar
    40   20   21 ar
    41   20   47 1
    42   21   22 ar
    43   21   48 1
    44   22   23 ar
    45   22   25 1
    46   23   24 ar
    47   23   49 1
    48   24   50 1
    49   25   30 1
    50   25   26 1
    51   26   27 1
    52   26   51 1
    53   26   52 1
    54   27   28 1
    55   27   53 1
    56   27   54 1
    57   28   29 1
    58   28   55 1
    59   28   60 1
    60   29   30 1
    61   29   56 1
    62   29   57 1
    63   30   58 1
    64   30   59 1
@<TRIPOS>MOLECULE
CHEMBL52387
   52    54     0     0     0
SMALL
USER_CHARGES

@<TRIPOS>ATOM
      1 C1         -0.0187    1.5258    0.0104 C.3       1 <0>        -0.1531
      2 C2          0.0021   -0.0041    0.0020 C.3       1 <0>        -0.1278
      3 C3         -1.4333   -0.5336    0.0129 C.3       1 <0>         0.1689
      4 C4         -1.4133   -2.0590    0.1302 C.3       1 <0>         0.0625
      5 O1         -0.6117   -2.6069   -0.9183 O.3       1 <0>        -0.5692
      6 N1         -2.1054   -0.1483   -1.2305 N.pl3     1 <0>        -0.6816
      7 C5         -3.4856   -0.0365   -1.2658 C.ar      1 <0>         0.6305
      8 N2         -4.1766   -0.2783   -0.1589 N.ar      1 <0>        -0.6256
      9 C6         -5.5013   -0.1844   -0.1423 C.ar      1 <0>         0.5407
     10 C7         -6.1646    0.1788   -1.3275 C.ar      1 <0>        -0.1560
     11 C8         -5.3921    0.4251   -2.4741 C.ar      1 <0>         0.3485
     12 N3         -4.0693    0.3129   -2.4004 N.ar      1 <0>        -0.6161
     13 N4         -6.2808    0.7538   -3.4662 N.pl3     1 <0>        -0.4704
     14 C9         -7.5330    0.7038   -2.9264 C.2       1 <0>         0.2320
     15 N5         -7.4624    0.3664   -1.6720 N.2       1 <0>        -0.4548
     16 C10        -5.9467    1.0964   -4.8508 C.3       1 <0>         0.1344
     17 C11        -6.6196    0.1019   -5.7989 C.3       1 <0>        -0.1626
     18 C12        -6.4419    2.5107   -5.1599 C.3       1 <0>        -0.1626
     19 N6         -6.2133   -0.4389    1.0165 N.pl3     1 <0>        -0.6899
     20 C13        -5.5062   -0.8166    2.2427 C.3       1 <0>         0.1717
     21 C14        -6.5039   -1.0364    3.3505 C.ar      1 <0>        -0.1135
     22 C15        -6.8801    0.0183    4.1611 C.ar      1 <0>        -0.0982
     23 C16        -7.7953   -0.1833    5.1773 C.ar      1 <0>        -0.1219
     24 C17        -8.3347   -1.4394    5.3826 C.ar      1 <0>        -0.1101
     25 C18        -7.9592   -2.4939    4.5714 C.ar      1 <0>        -0.1221
     26 C19        -7.0472   -2.2913    3.5524 C.ar      1 <0>        -0.0986
     27 H1          1.0039    1.9031    0.0027 H         1 <0>         0.0563
     28 H2         -0.5459    1.8868   -0.8726 H         1 <0>         0.0552
     29 H3         -0.5289    1.8773    0.9072 H         1 <0>         0.0537
     30 H4          0.5123   -0.3556   -0.8948 H         1 <0>         0.0768
     31 H5          0.5293   -0.3651    0.8851 H         1 <0>         0.0774
     32 H6         -1.9701   -0.1109    0.8621 H         1 <0>         0.1030
     33 H7         -0.9936   -2.3437    1.0951 H         1 <0>         0.0524
     34 H8         -2.4301   -2.4431    0.0488 H         1 <0>         0.0503
     35 H9         -0.5540   -3.5721   -0.9058 H         1 <0>         0.3776
     36 H10        -1.5839    0.0285   -2.0291 H         1 <0>         0.4145
     37 H11        -8.4474    0.9139   -3.4613 H         1 <0>         0.2138
     38 H12        -4.8660    1.0524   -4.9853 H         1 <0>         0.1061
     39 H13        -7.7004    0.1459   -5.6644 H         1 <0>         0.0654
     40 H14        -6.3710    0.3568   -6.8291 H         1 <0>         0.0793
     41 H15        -6.2668   -0.9057   -5.5787 H         1 <0>         0.0629
     42 H16        -6.1933    2.7656   -6.1901 H         1 <0>         0.0793
     43 H17        -7.5227    2.5547   -5.0254 H         1 <0>         0.0654
     44 H18        -5.9625    3.2193   -4.4845 H         1 <0>         0.0629
     45 H19        -7.1807   -0.3672    1.0169 H         1 <0>         0.4195
     46 H20        -4.9460   -1.7357    2.0706 H         1 <0>         0.0763
     47 H21        -4.8186   -0.0196    2.5258 H         1 <0>         0.0773
     48 H22        -6.4587    0.9996    4.0008 H         1 <0>         0.1237
     49 H23        -8.0886    0.6405    5.8111 H         1 <0>         0.1245
     50 H24        -9.0492   -1.5971    6.1770 H         1 <0>         0.1237
     51 H25        -8.3804   -3.4753    4.7320 H         1 <0>         0.1244
     52 H26        -6.7567   -3.1143    2.9163 H         1 <0>         0.1232
@<TRIPOS>BOND
     1    1    2 1
     2    1   27 1
     3    1   28 1
     4    1   29 1
     5    2    3 1
     6    2   30 1
     7    2   31 1
     8    3    4 1
     9    3    6 1
    10    3   32 1
    11    4    5 1
    12    4   33 1
    13    4   34 1
    14    5   35 1
    15    6    7 1
    16    6   36 1
    17    7   12 ar
    18    7    8 ar
    19    8    9 ar
    20    9   10 ar
    21    9   19 1
    22   10   15 1
    23   10   11 ar
    24   11   12 ar
    25   11   13 1
    26   13   14 1
    27   13   16 1
    28   14   15 2
    29   14   37 1
    30   16   17 1
    31   16   18 1
    32   16   38 1
    33   17   39 1
    34   17   40 1
    35   17   41 1
    36   18   42 1
    37   18   43 1
    38   18   44 1
    39   19   20 1
    40   19   45 1
    41   20   21 1
    42   20   46 1
    43   20   47 1
    44   21   26 ar
    45   21   22 ar
    46   22   23 ar
    47   22   48 1
    48   23   24 ar
    49   23   49 1
    50   24   25 ar
    51   24   50 1
    52   25   26 ar
    53   25   51 1
    54   26   52 1
@<TRIPOS>MOLECULE
CHEMBL52387
   52    54     0     0     0
SMALL
USER_CHARGES

@<TRIPOS>ATOM
      1 C1         -0.0187    1.5258    0.0104 C.3       1 <0>        -0.1531
      2 C2          0.0021   -0.0041    0.0020 C.3       1 <0>        -0.1278
      3 C3         -1.4333   -0.5336    0.0129 C.3       1 <0>         0.1690
      4 C4         -1.4157   -2.0577   -0.1212 C.3       1 <0>         0.0625
      5 O1         -0.5943   -2.6167    0.9058 O.3       1 <0>        -0.5692
      6 N1         -2.0815   -0.1618    1.2729 N.pl3     1 <0>        -0.6816
      7 C5         -3.4608   -0.0505    1.3358 C.ar      1 <0>         0.6305
      8 N2         -4.1736   -0.2909    0.2424 N.ar      1 <0>        -0.6255
      9 C6         -5.4983   -0.1974    0.2522 C.ar      1 <0>         0.5407
     10 C7         -6.1381    0.1638    1.4509 C.ar      1 <0>        -0.1560
     11 C8         -5.3431    0.4087    2.5823 C.ar      1 <0>         0.3484
     12 N3         -4.0227    0.2867    2.4850 N.ar      1 <0>        -0.6160
     13 N4         -6.2120    0.7357    3.5923 N.pl3     1 <0>        -0.4703
     14 C9         -7.4746    0.6860    3.0775 C.2       1 <0>         0.2319
     15 N5         -7.4289    0.3504    1.8214 N.2       1 <0>        -0.4548
     16 C10        -5.8507    1.0750    4.9709 C.3       1 <0>         0.1344
     17 C11        -6.3389    2.4888    5.2929 C.3       1 <0>        -0.1626
     18 C12        -6.5055    0.0786    5.9298 C.3       1 <0>        -0.1626
     19 N6         -6.2330   -0.4496   -0.8927 N.pl3     1 <0>        -0.6898
     20 C13        -5.5502   -0.8244   -2.1335 C.3       1 <0>         0.1717
     21 C14        -6.5696   -1.0420   -3.2219 C.ar      1 <0>        -0.1135
     22 C15        -7.1206   -2.2954   -3.4122 C.ar      1 <0>        -0.0986
     23 C16        -8.0557   -2.4951   -4.4105 C.ar      1 <0>        -0.1221
     24 C17        -8.4401   -1.4412   -5.2182 C.ar      1 <0>        -0.1101
     25 C18        -7.8898   -0.1876   -5.0274 C.ar      1 <0>        -0.1219
     26 C19        -6.9579    0.0130   -4.0262 C.ar      1 <0>        -0.0982
     27 H1          1.0039    1.9031    0.0027 H         1 <0>         0.0563
     28 H2         -0.5459    1.8868   -0.8726 H         1 <0>         0.0537
     29 H3         -0.5289    1.8773    0.9072 H         1 <0>         0.0553
     30 H4          0.5123   -0.3556   -0.8948 H         1 <0>         0.0774
     31 H5          0.5293   -0.3651    0.8851 H         1 <0>         0.0768
     32 H6         -1.9862   -0.1019   -0.8214 H         1 <0>         0.1028
     33 H7         -2.4308   -2.4427   -0.0245 H         1 <0>         0.0505
     34 H8         -1.0145   -2.3319   -1.0969 H         1 <0>         0.0523
     35 H9         -0.5369   -3.5817    0.8819 H         1 <0>         0.3776
     36 H10        -1.5448    0.0065    2.0632 H         1 <0>         0.4145
     37 H11        -8.3784    0.8940    3.6310 H         1 <0>         0.2138
     38 H12        -4.7676    1.0301    5.0842 H         1 <0>         0.1061
     39 H13        -7.4221    2.5338    5.1796 H         1 <0>         0.0654
     40 H14        -6.0701    2.7413    6.3186 H         1 <0>         0.0793
     41 H15        -5.8724    3.1986    4.6098 H         1 <0>         0.0629
     42 H16        -6.2367    0.3311    6.9555 H         1 <0>         0.0793
     43 H17        -7.5887    0.1236    5.8165 H         1 <0>         0.0654
     44 H18        -6.1577   -0.9286    5.7004 H         1 <0>         0.0629
     45 H19        -7.2002   -0.3782   -0.8739 H         1 <0>         0.4195
     46 H20        -4.8686   -0.0265   -2.4284 H         1 <0>         0.0773
     47 H21        -4.9865   -1.7436   -1.9746 H         1 <0>         0.0763
     48 H22        -6.8203   -3.1188   -2.7811 H         1 <0>         0.1232
     49 H23        -8.4856   -3.4746   -4.5596 H         1 <0>         0.1244
     50 H24        -9.1701   -1.5974   -5.9987 H         1 <0>         0.1237
     51 H25        -8.1899    0.6357   -5.6587 H         1 <0>         0.1245
     52 H26        -6.5307    0.9933   -3.8747 H         1 <0>         0.1237
@<TRIPOS>BOND
     1    1    2 1
     2    1   27 1
     3    1   28 1
     4    1   29 1
     5    2    3 1
     6    2   30 1
     7    2   31 1
     8    3    4 1
     9    3    6 1
    10    3   32 1
    11    4    5 1
    12    4   33 1
    13    4   34 1
    14    5   35 1
    15    6    7 1
    16    6   36 1
    17    7   12 ar
    18    7    8 ar
    19    8    9 ar
    20    9   10 ar
    21    9   19 1
    22   10   15 1
    23   10   11 ar
    24   11   12 ar
    25   11   13 1
    26   13   14 1
    27   13   16 1
    28   14   15 2
    29   14   37 1
    30   16   17 1
    31   16   18 1
    32   16   38 1
    33   17   39 1
    34   17   40 1
    35   17   41 1
    36   18   42 1
    37   18   43 1
    38   18   44 1
    39   19   20 1
    40   19   45 1
    41   20   21 1
    42   20   46 1
    43   20   47 1
    44   21   26 ar
    45   21   22 ar
    46   22   23 ar
    47   22   48 1
    48   23   24 ar
    49   23   49 1
    50   24   25 ar
    51   24   50 1
    52   25   26 ar
    53   25   51 1
    54   26   52 1
@<TRIPOS>MOLECULE
CHEMBL500804
   25    27     0     0     0
SMALL
USER_CHARGES

@<TRIPOS>ATOM
      1 C1         -0.0187    1.5258    0.0104 C.3       1 <0>        -0.1436
      2 C2          1.3165    0.7789   -0.0063 C.3       1 <0>        -0.1496
      3 C3          0.0021   -0.0041    0.0020 C.3       1 <0>        -0.1968
      4 C4         -0.4023   -0.6984   -1.2729 C.2       1 <0>         0.5341
      5 O1         -0.7279   -0.0457   -2.2420 O.2       1 <0>        -0.4813
      6 N1         -0.4023   -2.0447   -1.3362 N.am      1 <0>        -0.6230
      7 C5         -0.7748   -2.6844   -2.5106 C.2       1 <0>         0.2957
      8 N2         -1.1436   -2.1271   -3.6354 N.2       1 <0>        -0.2227
      9 N3         -1.4514   -3.1102   -4.6032 N.pl3     1 <0>        -0.5782
     10 C6         -1.8877   -4.2101   -3.8936 C.2       1 <0>         0.0953
     11 C7         -2.6370   -5.2622   -3.6130 C.2       1 <0>        -0.1585
     12 C8         -2.5101   -5.6061   -2.1942 C.2       1 <0>        -0.0813
     13 C9         -1.4746   -4.9579   -1.6539 C.2       1 <0>        -0.1967
     14 C10        -0.8347   -4.1724   -2.7645 C.3       1 <0>        -0.0822
     15 H1         -0.3072    2.0201    0.9381 H         1 <0>         0.1082
     16 H2         -0.3248    2.0300   -0.9061 H         1 <0>         0.1101
     17 H3          1.8888    0.7918   -0.9339 H         1 <0>         0.1013
     18 H4          1.9064    0.7818    0.9103 H         1 <0>         0.1094
     19 H5         -0.2728   -0.5162    0.9241 H         1 <0>         0.1307
     20 H6         -0.1419   -2.5667   -0.5612 H         1 <0>         0.4245
     21 H7         -1.3728   -3.0284   -5.5665 H         1 <0>         0.4396
     22 H8         -3.2530   -5.7910   -4.3252 H         1 <0>         0.1361
     23 H9         -3.1601   -6.2851   -1.6622 H         1 <0>         0.1408
     24 H10        -1.1567   -4.9928   -0.6224 H         1 <0>         0.1458
     25 H11         0.1289   -4.5772   -3.0738 H         1 <0>         0.1420
@<TRIPOS>BOND
     1    1    3 1
     2    1    2 1
     3    1   15 1
     4    1   16 1
     5    2    3 1
     6    2   17 1
     7    2   18 1
     8    3    4 1
     9    3   19 1
    10    4    5 2
    11    4    6 am
    12    6    7 1
    13    6   20 1
    14    7   14 1
    15    7    8 2
    16    8    9 1
    17    9   10 1
    18    9   21 1
    19   10   14 1
    20   10   11 2
    21   11   12 1
    22   11   22 1
    23   12   13 2
    24   12   23 1
    25   13   14 1
    26   13   24 1
    27   14   25 1
@<TRIPOS>MOLECULE
CHEMBL500804
   25    27     0     0     0
SMALL
USER_CHARGES

@<TRIPOS>ATOM
      1 C1         -0.0187    1.5258    0.0104 C.3       1 <0>        -0.1436
      2 C2          1.3165    0.7789   -0.0063 C.3       1 <0>        -0.1496
      3 C3          0.0021   -0.0041    0.0020 C.3       1 <0>        -0.1968
      4 C4         -0.3780   -0.7121    1.2769 C.2       1 <0>         0.5342
      5 O1         -0.6849   -0.0699    2.2590 O.2       1 <0>        -0.4812
      6 N1         -0.3769   -2.0590    1.3257 N.am      1 <0>        -0.6230
      7 C5         -0.7270   -2.7113    2.5001 C.2       1 <0>         0.2963
      8 N2         -1.0851   -2.1663    3.6343 N.2       1 <0>        -0.2226
      9 N3         -1.3702   -3.1598    4.5985 N.pl3     1 <0>        -0.5774
     10 C6         -1.8062   -4.2581    3.8863 C.2       1 <0>         0.0958
     11 C7         -2.5495   -5.3151    3.6078 C.2       1 <0>        -0.1592
     12 C8         -2.4393   -5.6466    2.1847 C.2       1 <0>        -0.0813
     13 C9         -1.4175   -4.9846    1.6352 C.2       1 <0>        -0.1975
     14 C10        -0.7821   -4.2019    2.7391 C.3       1 <0>        -0.0824
     15 H1         -0.3072    2.0201    0.9381 H         1 <0>         0.1101
     16 H2         -0.3248    2.0300   -0.9061 H         1 <0>         0.1083
     17 H3          1.8888    0.7918   -0.9339 H         1 <0>         0.1094
     18 H4          1.9064    0.7818    0.9103 H         1 <0>         0.1013
     19 H5         -0.2904   -0.5063   -0.9201 H         1 <0>         0.1307
     20 H6         -0.1314   -2.5726    0.5403 H         1 <0>         0.4245
     21 H7         -1.2784   -3.0849    5.5612 H         1 <0>         0.4399
     22 H8         -3.1503   -5.8553    4.3244 H         1 <0>         0.1359
     23 H9         -3.0899   -6.3280    1.6567 H         1 <0>         0.1404
     24 H10        -1.1138   -5.0084    0.5991 H         1 <0>         0.1464
     25 H11         0.1872   -4.6100    3.0256 H         1 <0>         0.1412
@<TRIPOS>BOND
     1    1    3 1
     2    1    2 1
     3    1   15 1
     4    1   16 1
     5    2    3 1
     6    2   17 1
     7    2   18 1
     8    3    4 1
     9    3   19 1
    10    4    5 2
    11    4    6 am
    12    6    7 1
    13    6   20 1
    14    7   14 1
    15    7    8 2
    16    8    9 1
    17    9   10 1
    18    9   21 1
    19   10   14 1
    20   10   11 2
    21   11   12 1
    22   11   22 1
    23   12   13 2
    24   12   23 1
    25   13   14 1
    26   13   24 1
    27   14   25 1
@<TRIPOS>MOLECULE
CHEMBL372207
   57    61     0     0     0
SMALL
USER_CHARGES

@<TRIPOS>ATOM
      1 C1          0.9770   -0.7187   -2.1320 C.ar      1 <0>        -0.1073
      2 C2          2.1390   -0.0397   -2.4415 C.ar      1 <0>        -0.0636
      3 C3          2.2831    1.2875   -2.0808 C.ar      1 <0>        -0.0820
      4 C4          1.2647    1.9394   -1.4098 C.ar      1 <0>        -0.0590
      5 C5          0.0999    1.2664   -1.0977 C.ar      1 <0>        -0.1374
      6 C6         -0.0479   -0.0669   -1.4581 C.ar      1 <0>         0.2261
      7 N1         -1.2258   -0.7512   -1.1436 N.pl3     1 <0>        -0.6287
      8 C7         -1.2017   -2.1207   -0.9619 C.ar      1 <0>         0.5930
      9 N2         -0.0300   -2.7471   -0.9784 N.ar      1 <0>        -0.5786
     10 C8          0.0492   -4.0546   -0.8093 C.ar      1 <0>         0.2542
     11 C9         -1.1352   -4.7736   -0.6107 C.ar      1 <0>        -0.2657
     12 C10        -1.1385   -6.2202   -0.4153 C.2       1 <0>        -0.0051
     13 C11        -2.3320   -6.8422   -0.2286 C.2       1 <0>        -0.2105
     14 C12        -3.5276   -6.0956   -0.2268 C.2       1 <0>         0.5323
     15 O1         -4.5872   -6.6739   -0.0580 O.2       1 <0>        -0.4877
     16 N3         -3.5313   -4.7627   -0.4058 N.am      1 <0>        -0.4979
     17 C13        -2.3617   -4.0742   -0.5994 C.ar      1 <0>         0.4633
     18 N4         -2.3470   -2.7585   -0.7725 N.ar      1 <0>        -0.5823
     19 C14        -4.8034   -4.0362   -0.3943 C.3       1 <0>         0.1233
     20 C15        -5.6594   -4.4501   -1.6092 C.3       1 <0>        -0.1279
     21 C16        -6.5951   -5.5536   -1.0563 C.3       1 <0>        -0.1343
     22 C17        -6.9312   -5.0366    0.3645 C.3       1 <0>        -0.1111
     23 C18        -5.6121   -4.4092    0.8606 C.3       1 <0>        -0.1245
     24 N5          3.4612    1.9717   -2.3949 N.4       1 <0>        -0.3124
     25 C19         4.0991    2.4378   -1.1579 C.3       1 <0>        -0.0069
     26 C20         5.4297    3.1166   -1.4902 C.3       1 <0>        -0.1459
     27 C21         5.1709    4.3101   -2.4141 C.3       1 <0>        -0.1396
     28 C22         4.4387    3.8232   -3.6679 C.3       1 <0>        -0.1460
     29 C23         3.1449    3.1183   -3.2549 C.3       1 <0>        -0.0068
     30 H1          0.8634   -1.7541   -2.4176 H         1 <0>         0.1684
     31 H2          2.9363   -0.5459   -2.9655 H         1 <0>         0.1472
     32 H3          1.3806    2.9759   -1.1293 H         1 <0>         0.1448
     33 H4         -0.6949    1.7760   -0.5733 H         1 <0>         0.1500
     34 H5         -2.0600   -0.2645   -1.0529 H         1 <0>         0.4343
     35 H6          1.0050   -4.5571   -0.8242 H         1 <0>         0.1910
     36 H7         -0.2159   -6.7817   -0.4194 H         1 <0>         0.1560
     37 H8         -2.3647   -7.9117   -0.0815 H         1 <0>         0.1643
     38 H9         -4.6198   -2.9620   -0.4145 H         1 <0>         0.1136
     39 H10        -6.2414   -3.6029   -1.9721 H         1 <0>         0.0800
     40 H11        -5.0275   -4.8481   -2.4031 H         1 <0>         0.0638
     41 H12        -7.4979   -5.6336   -1.6619 H         1 <0>         0.0602
     42 H13        -6.0761   -6.5108   -1.0064 H         1 <0>         0.1050
     43 H14        -7.7186   -4.2842    0.3204 H         1 <0>         0.0625
     44 H15        -7.2274   -5.8628    1.0109 H         1 <0>         0.0700
     45 H16        -5.0580   -5.1307    1.4610 H         1 <0>         0.0740
     46 H17        -5.8216   -3.5158    1.4489 H         1 <0>         0.0696
     47 H18         3.4433    3.1503   -0.6576 H         1 <0>         0.1264
     48 H19         4.2797    1.5877   -0.5001 H         1 <0>         0.1304
     49 H20         5.9009    3.4636   -0.5706 H         1 <0>         0.1124
     50 H21         6.0864    2.4048   -1.9903 H         1 <0>         0.0880
     51 H22         4.5561    5.0459   -1.8956 H         1 <0>         0.0815
     52 H23         6.1205    4.7630   -2.6992 H         1 <0>         0.0944
     53 H24         4.2016    4.6754   -4.3049 H         1 <0>         0.1125
     54 H25         5.0749    3.1262   -4.2132 H         1 <0>         0.0879
     55 H26         2.6210    2.7706   -4.1453 H         1 <0>         0.1303
     56 H27         2.5094    3.8163   -2.7099 H         1 <0>         0.1266
     57 H28         4.0899    1.3507   -2.8818 H         1 <0>         0.4243
@<TRIPOS>BOND
     1    1    6 ar
     2    1    2 ar
     3    1   30 1
     4    2    3 ar
     5    2   31 1
     6    3    4 ar
     7    3   24 1
     8    4    5 ar
     9    4   32 1
    10    5    6 ar
    11    5   33 1
    12    6    7 1
    13    7    8 1
    14    7   34 1
    15    8   18 ar
    16    8    9 ar
    17    9   10 ar
    18   10   11 ar
    19   10   35 1
    20   11   17 ar
    21   11   12 1
    22   12   13 2
    23   12   36 1
    24   13   14 1
    25   13   37 1
    26   14   15 2
    27   14   16 am
    28   16   17 1
    29   16   19 1
    30   17   18 ar
    31   19   23 1
    32   19   20 1
    33   19   38 1
    34   20   21 1
    35   20   39 1
    36   20   40 1
    37   21   22 1
    38   21   41 1
    39   21   42 1
    40   22   23 1
    41   22   43 1
    42   22   44 1
    43   23   45 1
    44   23   46 1
    45   24   29 1
    46   24   25 1
    47   24   57 1
    48   25   26 1
    49   25   47 1
    50   25   48 1
    51   26   27 1
    52   26   49 1
    53   26   50 1
    54   27   28 1
    55   27   51 1
    56   27   52 1
    57   28   29 1
    58   28   53 1
    59   28   54 1
    60   29   55 1
    61   29   56 1
@<TRIPOS>MOLECULE
CHEMBL278894
   45    47     0     0     0
SMALL
USER_CHARGES

@<TRIPOS>ATOM
      1 C1         -0.0187    1.5258    0.0104 C.3       1 <0>        -0.1661
      2 C2          0.0021   -0.0041    0.0020 C.3       1 <0>         0.1714
      3 C3          0.7421   -0.5109    1.2415 C.3       1 <0>        -0.1654
      4 C4         -1.4333   -0.5336    0.0129 C.3       1 <0>        -0.1581
      5 N1          0.6878   -0.4765   -1.2033 N.pl3     1 <0>        -0.6801
      6 C5          2.0006   -0.1244   -1.4321 C.ar      1 <0>         0.4900
      7 C6          2.6808   -0.5658   -2.5946 C.ar      1 <0>        -0.1754
      8 C7          2.0605   -1.3697   -3.5546 C.ar      1 <0>        -0.0637
      9 C8          2.7773   -1.7691   -4.6703 C.ar      1 <0>        -0.0413
     10 C9          4.1123   -1.3723   -4.8378 C.ar      1 <0>        -0.0644
     11 C10         4.7300   -0.5899   -3.9122 C.ar      1 <0>        -0.0936
     12 C11         4.0294   -0.1699   -2.7720 C.ar      1 <0>         0.1850
     13 N2          4.6012    0.6023   -1.8360 N.ar      1 <0>        -0.5054
     14 C12         3.9226    0.9811   -0.7793 C.ar      1 <0>         0.2924
     15 N3          2.6602    0.6411   -0.5732 N.ar      1 <0>        -0.5612
     16 C13         4.6101    1.8479    0.2440 C.3       1 <0>         0.5462
     17 F1          5.7845    2.3745   -0.3042 F         1 <0>        -0.1553
     18 F2          3.7592    2.8941    0.6162 F         1 <0>        -0.1608
     19 F3          4.9247    1.0797    1.3701 F         1 <0>        -0.1644
     20 C14         2.1287   -2.6230   -5.6955 C.ar      1 <0>        -0.0034
     21 C15         0.8005   -3.0169   -5.5386 C.ar      1 <0>        -0.1677
     22 C16         0.1981   -3.8111   -6.4935 C.ar      1 <0>        -0.0670
     23 C17         0.9078   -4.2189   -7.6072 C.ar      1 <0>        -0.1926
     24 C18         2.2321   -3.8312   -7.7720 C.ar      1 <0>         0.2201
     25 C19         2.8429   -3.0284   -6.8197 C.ar      1 <0>        -0.1866
     26 N4          2.9463   -4.2452   -8.8989 N.pl3     1 <0>        -0.8778
     27 H1          1.0039    1.9031    0.0027 H         1 <0>         0.0847
     28 H2         -0.5459    1.8868   -0.8726 H         1 <0>         0.0531
     29 H3         -0.5289    1.8773    0.9072 H         1 <0>         0.0682
     30 H4          0.2319   -0.1594    2.1383 H         1 <0>         0.0684
     31 H5          0.7568   -1.6008    1.2356 H         1 <0>         0.0533
     32 H6          1.7647   -0.1336    1.2338 H         1 <0>         0.0831
     33 H7         -1.9605   -0.1726   -0.8702 H         1 <0>         0.0637
     34 H8         -1.4185   -1.6235    0.0069 H         1 <0>         0.0636
     35 H9         -1.9435   -0.1821    0.9097 H         1 <0>         0.0803
     36 H10         0.2179   -1.0371   -1.8404 H         1 <0>         0.4129
     37 H11         1.0328   -1.6767   -3.4276 H         1 <0>         0.1342
     38 H12         4.6573   -1.6927   -5.7134 H         1 <0>         0.1404
     39 H13         5.7585   -0.2929   -4.0549 H         1 <0>         0.1480
     40 H14         0.2428   -2.7009   -4.6693 H         1 <0>         0.1195
     41 H15        -0.8309   -4.1150   -6.3698 H         1 <0>         0.1253
     42 H16         0.4321   -4.8408   -8.3511 H         1 <0>         0.1218
     43 H17         3.8707   -2.7225   -6.9478 H         1 <0>         0.1251
     44 H18         2.5179   -4.8035   -9.5665 H         1 <0>         0.4000
     45 H19         3.8707   -3.9745   -9.0138 H         1 <0>         0.3993
@<TRIPOS>BOND
     1    1    2 1
     2    1   27 1
     3    1   28 1
     4    1   29 1
     5    2    3 1
     6    2    4 1
     7    2    5 1
     8    3   30 1
     9    3   31 1
    10    3   32 1
    11    4   33 1
    12    4   34 1
    13    4   35 1
    14    5    6 1
    15    5   36 1
    16    6   15 ar
    17    6    7 ar
    18    7   12 ar
    19    7    8 ar
    20    8    9 ar
    21    8   37 1
    22    9   10 ar
    23    9   20 1
    24   10   11 ar
    25   10   38 1
    26   11   12 ar
    27   11   39 1
    28   12   13 ar
    29   13   14 ar
    30   14   15 ar
    31   14   16 1
    32   16   17 1
    33   16   18 1
    34   16   19 1
    35   20   25 ar
    36   20   21 ar
    37   21   22 ar
    38   21   40 1
    39   22   23 ar
    40   22   41 1
    41   23   24 ar
    42   23   42 1
    43   24   25 ar
    44   24   26 1
    45   25   43 1
    46   26   44 1
    47   26   45 1
@<TRIPOS>MOLECULE
CHEMBL358102
   47    50     0     0     0
SMALL
USER_CHARGES

@<TRIPOS>ATOM
      1 C1          0.6053    1.3023   -0.0826 C.3       1 <0>         0.0013
      2 N1         -0.0020   -0.0313    0.0214 N.3       1 <0>        -0.3180
      3 C2          0.1026   -0.5520    1.3911 C.3       1 <0>         0.0030
      4 N2         -1.3023   -0.0110   -0.3966 N.am      1 <0>        -0.5837
      5 C3         -1.6726   -0.7201   -1.4813 C.2       1 <0>         0.7330
      6 O1         -2.8299   -0.7020   -1.8533 O.2       1 <0>        -0.5684
      7 N3         -0.7599   -1.4492   -2.1535 N.am      1 <0>        -0.6612
      8 C4         -1.1619   -2.2729   -3.2013 C.ar      1 <0>         0.2461
      9 C5         -2.4650   -2.7587   -3.2466 C.ar      1 <0>        -0.1340
     10 C6         -2.8661   -3.5755   -4.2833 C.ar      1 <0>        -0.0618
     11 C7         -1.9793   -3.9215   -5.2900 C.ar      1 <0>        -0.1119
     12 C8         -0.6740   -3.4482   -5.2659 C.ar      1 <0>         0.0417
     13 C9         -0.2576   -2.6106   -4.2159 C.ar      1 <0>        -0.1970
     14 C10         1.1575   -2.2457   -4.4289 C.2       1 <0>         0.4909
     15 O2          1.8325   -1.5366   -3.7064 O.2       1 <0>        -0.4422
     16 C11         1.6038   -2.8934   -5.6697 C.2       1 <0>        -0.3300
     17 C12         0.4661   -3.6538   -6.1935 C.2       1 <0>         0.1281
     18 N4          0.8616   -4.2361   -7.2984 N.2       1 <0>        -0.2359
     19 N5          2.2030   -3.9220   -7.5377 N.pl3     1 <0>        -0.4665
     20 H1          2.7254   -4.2318   -8.2940 H         1 <0>         0.4477
     21 C13         2.6549   -3.0939   -6.5541 C.2       1 <0>         0.2395
     22 C14         4.0149   -2.5340   -6.4380 C.ar      1 <0>        -0.0999
     23 C15         4.1929   -1.1902   -6.0976 C.ar      1 <0>        -0.0252
     24 C16         5.4646   -0.6716   -5.9904 C.ar      1 <0>        -0.1498
     25 C17         6.5694   -1.4823   -6.2204 C.ar      1 <0>         0.1509
     26 C18         6.3970   -2.8188   -6.5595 C.ar      1 <0>        -0.2105
     27 C19         5.1291   -3.3474   -6.6624 C.ar      1 <0>        -0.0519
     28 O3          7.8212   -0.9669   -6.1140 O.3       1 <0>        -0.3121
     29 C20         8.9120   -1.8555   -6.3638 C.3       1 <0>         0.0239
     30 H2          1.6592    1.2438    0.1895 H         1 <0>         0.0904
     31 H3          0.5141    1.6642   -1.1067 H         1 <0>         0.0784
     32 H4          0.0933    1.9883    0.5922 H         1 <0>         0.0405
     33 H5         -0.4716    0.0828    2.0659 H         1 <0>         0.0415
     34 H6         -0.2912   -1.5678    1.4246 H         1 <0>         0.0782
     35 H7          1.1482   -0.5573    1.6989 H         1 <0>         0.0897
     36 H8         -1.9591    0.5138    0.0872 H         1 <0>         0.4016
     37 H9          0.1770   -1.3999   -1.9073 H         1 <0>         0.4285
     38 H10        -3.1648   -2.4955   -2.4672 H         1 <0>         0.1608
     39 H11        -3.8793   -3.9486   -4.3102 H         1 <0>         0.1416
     40 H12        -2.3044   -4.5620   -6.0965 H         1 <0>         0.1370
     41 H13         3.3348   -0.5592   -5.9193 H         1 <0>         0.1383
     42 H14         5.6031    0.3667   -5.7274 H         1 <0>         0.1407
     43 H15         7.2585   -3.4453   -6.7378 H         1 <0>         0.1364
     44 H16         4.9962   -4.3874   -6.9212 H         1 <0>         0.1289
     45 H17         8.8752   -2.6838   -5.6562 H         1 <0>         0.0589
     46 H18         8.8401   -2.2425   -7.3802 H         1 <0>         0.0584
     47 H19         9.8529   -1.3181   -6.2454 H         1 <0>         0.1041
@<TRIPOS>BOND
     1    1    2 1
     2    1   30 1
     3    1   31 1
     4    1   32 1
     5    2    3 1
     6    2    4 1
     7    3   33 1
     8    3   34 1
     9    3   35 1
    10    4    5 am
    11    4   36 1
    12    5    6 2
    13    5    7 am
    14    7    8 1
    15    7   37 1
    16    8   13 ar
    17    8    9 ar
    18    9   10 ar
    19    9   38 1
    20   10   11 ar
    21   10   39 1
    22   11   12 ar
    23   11   40 1
    24   12   17 1
    25   12   13 ar
    26   13   14 1
    27   14   15 2
    28   14   16 1
    29   16   21 2
    30   16   17 1
    31   17   18 2
    32   18   19 1
    33   19   20 1
    34   19   21 1
    35   21   22 1
    36   22   27 ar
    37   22   23 ar
    38   23   24 ar
    39   23   41 1
    40   24   25 ar
    41   24   42 1
    42   25   26 ar
    43   25   28 1
    44   26   27 ar
    45   26   43 1
    46   27   44 1
    47   28   29 1
    48   29   45 1
    49   29   46 1
    50   29   47 1
@<TRIPOS>MOLECULE
CHEMBL358102
   47    50     0     0     0
SMALL
USER_CHARGES

@<TRIPOS>ATOM
      1 C1         -0.5927    1.3361    0.2832 C.3       1 <0>         0.0003
      2 N1         -0.0174    0.0153   -0.0043 N.3       1 <0>        -0.3171
      3 C2          1.1417   -0.2529    0.8574 C.3       1 <0>         0.0041
      4 N2         -0.9587   -0.9666    0.1218 N.am      1 <0>        -0.5834
      5 C3         -1.3237   -1.6923   -0.9537 C.2       1 <0>         0.7346
      6 O1         -2.1614   -2.5662   -0.8415 O.2       1 <0>        -0.5714
      7 N3         -0.7599   -1.4492   -2.1535 N.am      1 <0>        -0.6643
      8 C4         -1.0665   -2.2581   -3.2426 C.ar      1 <0>         0.2455
      9 C5         -2.3508   -2.7905   -3.3824 C.ar      1 <0>        -0.1167
     10 C6         -2.6544   -3.5907   -4.4604 C.ar      1 <0>        -0.0679
     11 C7         -1.6917   -3.8787   -5.4203 C.ar      1 <0>        -0.1091
     12 C8         -0.4112   -3.3605   -5.3006 C.ar      1 <0>         0.0081
     13 C9         -0.0956   -2.5371   -4.2032 C.ar      1 <0>        -0.1896
     14 C10         1.3211   -2.1317   -4.3440 C.2       1 <0>         0.4833
     15 O2          1.9488   -1.4221   -3.5830 O.2       1 <0>        -0.4262
     16 C11         1.8272   -2.7532   -5.5846 C.2       1 <0>        -0.3130
     17 C12         0.7969   -3.4932   -6.1498 C.2       1 <0>         0.1580
     18 N4          1.2796   -4.0562   -7.2785 N.pl3     1 <0>        -0.4253
     19 N5          2.6218   -3.6878   -7.4224 N.2       1 <0>        -0.2722
     20 H1          0.7795   -4.6218   -7.8876 H         1 <0>         0.4468
     21 C13         2.9578   -2.8976   -6.4237 C.2       1 <0>         0.2003
     22 C14         4.2911   -2.2891   -6.2035 C.ar      1 <0>        -0.0723
     23 C15         4.3952   -1.0259   -5.6218 C.ar      1 <0>        -0.0344
     24 C16         5.6371   -0.4626   -5.4183 C.ar      1 <0>        -0.1524
     25 C17         6.7833   -1.1514   -5.7923 C.ar      1 <0>         0.1434
     26 C18         6.6831   -2.4094   -6.3716 C.ar      1 <0>        -0.2137
     27 C19         5.4445   -2.9809   -6.5722 C.ar      1 <0>        -0.0428
     28 O3          8.0055   -0.5932   -5.5912 O.3       1 <0>        -0.3149
     29 C20         9.1424   -1.3566   -5.9993 C.3       1 <0>         0.0251
     30 H2          0.1588    2.1058    0.1076 H         1 <0>         0.0906
     31 H3         -1.4491    1.5090   -0.3686 H         1 <0>         0.0772
     32 H4         -0.9148    1.3734    1.3239 H         1 <0>         0.0408
     33 H5          0.8189   -0.2961    1.8976 H         1 <0>         0.0406
     34 H6          1.5907   -1.2055    0.5764 H         1 <0>         0.0792
     35 H7          1.8756    0.5441    0.7376 H         1 <0>         0.0904
     36 H8         -1.3644   -1.1415    0.9853 H         1 <0>         0.4016
     37 H9         -0.1404   -0.7100   -2.2575 H         1 <0>         0.4277
     38 H10        -3.1071   -2.5739   -2.6424 H         1 <0>         0.1567
     39 H11        -3.6493   -3.9986   -4.5609 H         1 <0>         0.1428
     40 H12        -1.9416   -4.5081   -6.2616 H         1 <0>         0.1346
     41 H13         3.5041   -0.4893   -5.3314 H         1 <0>         0.1368
     42 H14         5.7184    0.5157   -4.9680 H         1 <0>         0.1374
     43 H15         7.5765   -2.9426   -6.6614 H         1 <0>         0.1333
     44 H16         5.3674   -3.9612   -7.0188 H         1 <0>         0.1309
     45 H17         9.1593   -2.3017   -5.4566 H         1 <0>         0.0574
     46 H18         9.0828   -1.5533   -7.0697 H         1 <0>         0.0575
     47 H19        10.0525   -0.7971   -5.7828 H         1 <0>         0.1019
@<TRIPOS>BOND
     1    1    2 1
     2    1   30 1
     3    1   31 1
     4    1   32 1
     5    2    3 1
     6    2    4 1
     7    3   33 1
     8    3   34 1
     9    3   35 1
    10    4    5 am
    11    4   36 1
    12    5    6 2
    13    5    7 am
    14    7    8 1
    15    7   37 1
    16    8   13 ar
    17    8    9 ar
    18    9   10 ar
    19    9   38 1
    20   10   11 ar
    21   10   39 1
    22   11   12 ar
    23   11   40 1
    24   12   17 1
    25   12   13 ar
    26   13   14 1
    27   14   15 2
    28   14   16 1
    29   16   21 1
    30   16   17 2
    31   17   18 1
    32   18   20 1
    33   18   19 1
    34   19   21 2
    35   21   22 1
    36   22   27 ar
    37   22   23 ar
    38   23   24 ar
    39   23   41 1
    40   24   25 ar
    41   24   42 1
    42   25   26 ar
    43   25   28 1
    44   26   27 ar
    45   26   43 1
    46   27   44 1
    47   28   29 1
    48   29   45 1
    49   29   46 1
    50   29   47 1
@<TRIPOS>MOLECULE
CHEMBL365855
   35    37     0     0     0
SMALL
USER_CHARGES

@<TRIPOS>ATOM
      1 C1         -0.0167    1.3781    0.0096 C.ar      1 <0>        -0.1156
      2 C2          1.1709    2.0855    0.0021 C.ar      1 <0>        -0.1187
      3 C3          2.3773    1.4107   -0.0130 C.ar      1 <0>        -0.1030
      4 C4          2.3960    0.0285   -0.0201 C.ar      1 <0>        -0.0759
      5 C5          1.2084   -0.6789   -0.0117 C.ar      1 <0>        -0.1030
      6 C6          0.0021   -0.0041    0.0020 C.ar      1 <0>        -0.1187
      7 C7          3.7112   -0.7071   -0.0376 C.3       1 <0>        -0.0942
      8 C8          4.1644   -0.9594    1.3773 C.2       1 <0>         0.5059
      9 O1          3.4863   -0.5793    2.3082 O.2       1 <0>        -0.4561
     10 N1          5.3234   -1.6075    1.6082 N.am      1 <0>        -0.6260
     11 C9          5.7415   -1.8402    2.9133 C.2       1 <0>         0.2658
     12 N2          5.1401   -1.5095    4.0355 N.2       1 <0>        -0.5177
     13 C10         5.6718   -1.8048    5.2072 C.2       1 <0>         0.0602
     14 C11         6.8585   -2.4604    5.1978 C.2       1 <0>        -0.1955
     15 S1          7.1363   -2.6200    3.4413 S.3       1 <0>         0.1091
     16 C12         7.7066   -2.9296    6.3517 C.3       1 <0>        -0.0206
     17 C13         9.2175   -2.7842    6.1048 C.3       1 <0>        -0.1348
     18 C14         9.3819   -4.1482    6.7957 C.3       1 <0>        -0.1423
     19 C15         7.9356   -4.4502    6.3695 C.3       1 <0>        -0.1334
     20 H1         -0.9591    1.9053    0.0259 H         1 <0>         0.1227
     21 H2          1.1563    3.1654    0.0076 H         1 <0>         0.1233
     22 H3          3.3051    1.9634   -0.0196 H         1 <0>         0.1201
     23 H4          1.2231   -1.7588   -0.0176 H         1 <0>         0.1201
     24 H5         -0.9258   -0.5567    0.0082 H         1 <0>         0.1233
     25 H6          3.5884   -1.6586   -0.5549 H         1 <0>         0.1098
     26 H7          4.4573   -0.1052   -0.5563 H         1 <0>         0.1099
     27 H8          5.8657   -1.9115    0.8637 H         1 <0>         0.4255
     28 H9          5.1834   -1.5358    6.1322 H         1 <0>         0.1734
     29 H10         7.3786   -2.5262    7.3096 H         1 <0>         0.1158
     30 H11         9.4904   -2.7936    5.0495 H         1 <0>         0.0817
     31 H12         9.6722   -1.9593    6.6533 H         1 <0>         0.0750
     32 H13        10.1210   -4.7926    6.3196 H         1 <0>         0.0720
     33 H14         9.5133   -4.0777    7.8755 H         1 <0>         0.0851
     34 H15         7.3553   -4.9702    7.1318 H         1 <0>         0.0744
     35 H16         7.8580   -4.9150    5.3867 H         1 <0>         0.0823
@<TRIPOS>BOND
     1    1    6 ar
     2    1    2 ar
     3    1   20 1
     4    2    3 ar
     5    2   21 1
     6    3    4 ar
     7    3   22 1
     8    4    5 ar
     9    4    7 1
    10    5    6 ar
    11    5   23 1
    12    6   24 1
    13    7    8 1
    14    7   25 1
    15    7   26 1
    16    8    9 2
    17    8   10 am
    18   10   11 1
    19   10   27 1
    20   11   15 1
    21   11   12 2
    22   12   13 1
    23   13   14 2
    24   13   28 1
    25   14   15 1
    26   14   16 1
    27   16   19 1
    28   16   17 1
    29   16   29 1
    30   17   18 1
    31   17   30 1
    32   17   31 1
    33   18   19 1
    34   18   32 1
    35   18   33 1
    36   19   34 1
    37   19   35 1
@<TRIPOS>MOLECULE
CHEMBL186511
   38    40     0     0     0
SMALL
USER_CHARGES

@<TRIPOS>ATOM
      1 C1         -0.0167    1.3781    0.0096 C.ar      1 <0>        -0.1156
      2 C2          1.1709    2.0855    0.0021 C.ar      1 <0>        -0.1187
      3 C3          2.3773    1.4107   -0.0130 C.ar      1 <0>        -0.1030
      4 C4          2.3960    0.0285   -0.0201 C.ar      1 <0>        -0.0758
      5 C5          1.2084   -0.6789   -0.0117 C.ar      1 <0>        -0.1030
      6 C6          0.0021   -0.0041    0.0020 C.ar      1 <0>        -0.1187
      7 C7          3.7112   -0.7071   -0.0376 C.3       1 <0>        -0.0943
      8 C8          4.1644   -0.9594    1.3773 C.2       1 <0>         0.5059
      9 O1          3.4863   -0.5793    2.3082 O.2       1 <0>        -0.4562
     10 N1          5.3234   -1.6075    1.6082 N.am      1 <0>        -0.6261
     11 C9          5.7415   -1.8402    2.9133 C.2       1 <0>         0.2654
     12 N2          5.1401   -1.5095    4.0355 N.2       1 <0>        -0.5176
     13 C10         5.6718   -1.8048    5.2072 C.2       1 <0>         0.0588
     14 C11         6.8585   -2.4604    5.1978 C.2       1 <0>        -0.1974
     15 S1          7.1363   -2.6200    3.4413 S.3       1 <0>         0.1095
     16 C12         7.7066   -2.9296    6.3517 C.3       1 <0>        -0.0001
     17 C13         9.1197   -2.3189    6.2515 C.3       1 <0>        -0.1196
     18 C14        10.0579   -3.4498    6.7414 C.3       1 <0>        -0.1259
     19 C15         9.3963   -4.7212    6.1540 C.3       1 <0>        -0.1262
     20 C16         7.8825   -4.4570    6.2897 C.3       1 <0>        -0.1212
     21 H1         -0.9591    1.9053    0.0259 H         1 <0>         0.1227
     22 H2          1.1563    3.1654    0.0076 H         1 <0>         0.1233
     23 H3          3.3051    1.9634   -0.0196 H         1 <0>         0.1201
     24 H4          1.2231   -1.7588   -0.0176 H         1 <0>         0.1201
     25 H5         -0.9258   -0.5567    0.0082 H         1 <0>         0.1233
     26 H6          3.5884   -1.6586   -0.5549 H         1 <0>         0.1098
     27 H7          4.4573   -0.1052   -0.5563 H         1 <0>         0.1098
     28 H8          5.8657   -1.9115    0.8637 H         1 <0>         0.4254
     29 H9          5.1834   -1.5358    6.1322 H         1 <0>         0.1730
     30 H10         7.2422   -2.6453    7.2959 H         1 <0>         0.0987
     31 H11         9.3484   -2.0538    5.2193 H         1 <0>         0.0684
     32 H12         9.2047   -1.4458    6.8984 H         1 <0>         0.0721
     33 H13        11.0634   -3.3179    6.3418 H         1 <0>         0.0693
     34 H14        10.0762   -3.4919    7.8304 H         1 <0>         0.0704
     35 H15         9.6697   -4.8441    5.1060 H         1 <0>         0.0658
     36 H16         9.6830   -5.6012    6.7297 H         1 <0>         0.0686
     37 H17         7.5042   -4.9138    7.2042 H         1 <0>         0.0721
     38 H18         7.3543   -4.8589    5.4250 H         1 <0>         0.0670
@<TRIPOS>BOND
     1    1    6 ar
     2    1    2 ar
     3    1   21 1
     4    2    3 ar
     5    2   22 1
     6    3    4 ar
     7    3   23 1
     8    4    5 ar
     9    4    7 1
    10    5    6 ar
    11    5   24 1
    12    6   25 1
    13    7    8 1
    14    7   26 1
    15    7   27 1
    16    8    9 2
    17    8   10 am
    18   10   11 1
    19   10   28 1
    20   11   15 1
    21   11   12 2
    22   12   13 1
    23   13   14 2
    24   13   29 1
    25   14   15 1
    26   14   16 1
    27   16   20 1
    28   16   17 1
    29   16   30 1
    30   17   18 1
    31   17   31 1
    32   17   32 1
    33   18   19 1
    34   18   33 1
    35   18   34 1
    36   19   20 1
    37   19   35 1
    38   19   36 1
    39   20   37 1
    40   20   38 1
@<TRIPOS>MOLECULE
CHEMBL523923
   53    57     0     0     0
SMALL
USER_CHARGES

@<TRIPOS>ATOM
      1 C1          0.9536   -0.4396    0.7118 C.ar      1 <0>        -0.1500
      2 C2          2.1970    0.1713    0.7276 C.ar      1 <0>        -0.0786
      3 C3          2.3683    1.3416   -0.0069 C.ar      1 <0>         0.1157
      4 C4          1.2933    1.8505   -0.7240 C.ar      1 <0>         0.0771
      5 N1          0.1265    1.2378   -0.7115 N.ar      1 <0>        -0.4639
      6 C5         -0.0681    0.1277   -0.0264 C.ar      1 <0>         0.0791
      7 N2          3.6055    1.9959   -0.0221 N.am      1 <0>        -0.6746
      8 C6          4.7459    1.2829    0.0649 C.2       1 <0>         0.7080
      9 O1          4.7051    0.0676    0.0594 O.2       1 <0>        -0.5689
     10 N3          5.9316    1.9169    0.1581 N.am      1 <0>        -0.6412
     11 C7          7.1208    1.1734    0.2488 C.2       1 <0>         0.0577
     12 C8          7.2200   -0.1781    0.2479 C.2       1 <0>         0.0499
     13 N4          8.5366   -0.4994    0.3509 N.pl3     1 <0>        -0.4511
     14 H1          8.9032   -1.3971    0.3739 H         1 <0>         0.4530
     15 N5          9.2722    0.6906    0.4173 N.2       1 <0>        -0.2591
     16 C9          8.4282    1.7018    0.3512 C.2       1 <0>         0.1171
     17 C10         8.7859    3.1350    0.3826 C.2       1 <0>         0.3642
     18 N6         10.0601    3.6269    0.4768 N.pl3     1 <0>        -0.5812
     19 H2         10.8757    3.1051    0.5343 H         1 <0>         0.4301
     20 C11         9.9670    5.0056    0.4747 C.ar      1 <0>         0.0584
     21 C12        10.8963    6.0339    0.5464 C.ar      1 <0>        -0.1087
     22 C13        10.4687    7.3448    0.5205 C.ar      1 <0>        -0.0894
     23 C14         9.1168    7.6419    0.4233 C.ar      1 <0>        -0.0863
     24 C15         8.1872    6.6435    0.3517 C.ar      1 <0>        -0.0370
     25 C16         8.5971    5.3066    0.3762 C.ar      1 <0>         0.0554
     26 N7          7.9311    4.1272    0.3186 N.2       1 <0>        -0.4786
     27 C17         8.6694    9.0808    0.3969 C.3       1 <0>         0.0974
     28 N8          8.6247    9.5543   -0.9930 N.3       1 <0>        -0.5318
     29 C18         9.9732    9.6034   -1.5765 C.3       1 <0>         0.0140
     30 C19         9.8746   10.0435   -3.0395 C.3       1 <0>         0.0628
     31 O2          9.2085   11.3072   -3.1081 O.3       1 <0>        -0.3857
     32 C20         7.8922   11.2953   -2.5492 C.3       1 <0>         0.0629
     33 C21         7.9707   10.8679   -1.0812 C.3       1 <0>         0.0170
     34 H3          0.7857   -1.3510    1.2664 H         1 <0>         0.1393
     35 H4          3.0132   -0.2497    1.2960 H         1 <0>         0.1477
     36 H5          1.4145    2.7577   -1.2974 H         1 <0>         0.1579
     37 H6         -1.0393   -0.3444   -0.0422 H         1 <0>         0.1585
     38 H7          3.6422    2.9624   -0.0952 H         1 <0>         0.4142
     39 H8          5.9642    2.8863    0.1625 H         1 <0>         0.4248
     40 H9          6.3987   -0.8759    0.1781 H         1 <0>         0.2139
     41 H10        11.9498    5.8084    0.6225 H         1 <0>         0.1271
     42 H11        11.1911    8.1457    0.5766 H         1 <0>         0.1295
     43 H12         7.1375    6.8861    0.2766 H         1 <0>         0.1330
     44 H13         7.6768    9.1608    0.8401 H         1 <0>         0.0879
     45 H14         9.3716    9.6901    0.9659 H         1 <0>         0.0479
     46 H15        10.5838   10.3163   -1.0223 H         1 <0>         0.0436
     47 H16        10.4289    8.6147   -1.5237 H         1 <0>         0.0907
     48 H17        10.8759   10.1365   -3.4599 H         1 <0>         0.0978
     49 H18         9.3091    9.3029   -3.6050 H         1 <0>         0.0598
     50 H19         7.4598   12.2937   -2.6150 H         1 <0>         0.0990
     51 H20         7.2690   10.5911   -3.1005 H         1 <0>         0.0606
     52 H21         6.9646   10.8022   -0.6670 H         1 <0>         0.0884
     53 H22         8.5492   11.6011   -0.5192 H         1 <0>         0.0445
@<TRIPOS>BOND
     1    1    6 ar
     2    1    2 ar
     3    1   34 1
     4    2    3 ar
     5    2   35 1
     6    3    4 ar
     7    3    7 1
     8    4    5 ar
     9    4   36 1
    10    5    6 ar
    11    6   37 1
    12    7    8 am
    13    7   38 1
    14    8    9 2
    15    8   10 am
    16   10   11 1
    17   10   39 1
    18   11   16 1
    19   11   12 2
    20   12   13 1
    21   12   40 1
    22   13   14 1
    23   13   15 1
    24   15   16 2
    25   16   17 1
    26   17   26 2
    27   17   18 1
    28   18   19 1
    29   18   20 1
    30   20   25 ar
    31   20   21 ar
    32   21   22 ar
    33   21   41 1
    34   22   23 ar
    35   22   42 1
    36   23   24 ar
    37   23   27 1
    38   24   25 ar
    39   24   43 1
    40   25   26 1
    41   27   28 1
    42   27   44 1
    43   27   45 1
    44   28   33 1
    45   28   29 1
    46   29   30 1
    47   29   46 1
    48   29   47 1
    49   30   31 1
    50   30   48 1
    51   30   49 1
    52   31   32 1
    53   32   33 1
    54   32   50 1
    55   32   51 1
    56   33   52 1
    57   33   53 1
@<TRIPOS>MOLECULE
CHEMBL523923
   53    57     0     0     0
SMALL
USER_CHARGES

@<TRIPOS>ATOM
      1 C1          0.9536   -0.4396    0.7118 C.ar      1 <0>        -0.1495
      2 C2          2.1970    0.1713    0.7276 C.ar      1 <0>        -0.0778
      3 C3          2.3683    1.3416   -0.0069 C.ar      1 <0>         0.1142
      4 C4          1.2933    1.8505   -0.7240 C.ar      1 <0>         0.0777
      5 N1          0.1265    1.2378   -0.7115 N.ar      1 <0>        -0.4642
      6 C5         -0.0681    0.1277   -0.0264 C.ar      1 <0>         0.0798
      7 N2          3.6055    1.9958   -0.0221 N.am      1 <0>        -0.6737
      8 C6          4.7459    1.2829    0.0649 C.2       1 <0>         0.7099
      9 O1          4.7051    0.0676    0.0594 O.2       1 <0>        -0.5603
     10 N3          5.9316    1.9169    0.1581 N.am      1 <0>        -0.6414
     11 C7          7.1171    1.1757    0.2486 C.2       1 <0>         0.1011
     12 C8          7.2222   -0.2198    0.2535 C.2       1 <0>         0.0536
     13 N4          8.4854   -0.5464    0.3501 N.2       1 <0>        -0.2427
     14 H1         10.2204    0.6670    0.4867 H         1 <0>         0.4440
     15 N5          9.2543    0.6220    0.4121 N.pl3     1 <0>        -0.4670
     16 C9          8.3995    1.6904    0.3434 C.2       1 <0>         0.0814
     17 C10         8.7721    3.1124    0.3688 C.2       1 <0>         0.3526
     18 N6         10.0538    3.5913    0.4582 N.pl3     1 <0>        -0.5958
     19 H2         10.8640    3.0609    0.5150 H         1 <0>         0.4234
     20 C11         9.9752    4.9715    0.4522 C.ar      1 <0>         0.0602
     21 C12        10.9162    5.9891    0.5179 C.ar      1 <0>        -0.1101
     22 C13        10.5036    7.3051    0.4890 C.ar      1 <0>        -0.0877
     23 C14         9.1549    7.6174    0.3946 C.ar      1 <0>        -0.0842
     24 C15         8.2137    6.6294    0.3288 C.ar      1 <0>        -0.0372
     25 C16         8.6083    5.2877    0.3565 C.ar      1 <0>         0.0575
     26 N7          7.9278    4.1169    0.3037 N.2       1 <0>        -0.4758
     27 C17         8.7241    9.0612    0.3649 C.3       1 <0>         0.0966
     28 N8          8.6808    9.5308   -1.0264 N.3       1 <0>        -0.5319
     29 C18        10.0281    9.5626   -1.6138 C.3       1 <0>         0.0140
     30 C19         9.9304    9.9990   -3.0780 C.3       1 <0>         0.0628
     31 O2          9.2788   11.2701   -3.1488 O.3       1 <0>        -0.3853
     32 C20         7.9639   11.2752   -2.5862 C.3       1 <0>         0.0628
     33 C21         8.0417   10.8516   -1.1171 C.3       1 <0>         0.0170
     34 H3          0.7857   -1.3511    1.2664 H         1 <0>         0.1399
     35 H4          3.0132   -0.2497    1.2960 H         1 <0>         0.1486
     36 H5          1.4145    2.7577   -1.2974 H         1 <0>         0.1577
     37 H6         -1.0393   -0.3444   -0.0422 H         1 <0>         0.1587
     38 H7          3.6422    2.9624   -0.0952 H         1 <0>         0.4139
     39 H8          5.9642    2.8863    0.1625 H         1 <0>         0.4240
     40 H9          6.3965   -0.9129    0.1885 H         1 <0>         0.2190
     41 H10        11.9672    5.7518    0.5918 H         1 <0>         0.1272
     42 H11        11.2353    8.0977    0.5404 H         1 <0>         0.1305
     43 H12         7.1667    6.8839    0.2559 H         1 <0>         0.1341
     44 H13         7.7337    9.1541    0.8106 H         1 <0>         0.0885
     45 H14         9.4348    9.6642    0.9299 H         1 <0>         0.0485
     46 H15        10.6484   10.2701   -1.0637 H         1 <0>         0.0439
     47 H16        10.4726    8.5688   -1.5592 H         1 <0>         0.0900
     48 H17        10.9316   10.0792   -3.5015 H         1 <0>         0.0979
     49 H18         9.3549    9.2632   -3.6396 H         1 <0>         0.0598
     50 H19         7.5429   12.2783   -2.6540 H         1 <0>         0.0994
     51 H20         7.3312   10.5764   -3.1335 H         1 <0>         0.0608
     52 H21         7.0361   10.7988   -0.6998 H         1 <0>         0.0887
     53 H22         8.6303   11.5798   -0.5590 H         1 <0>         0.0449
@<TRIPOS>BOND
     1    1    6 ar
     2    1    2 ar
     3    1   34 1
     4    2    3 ar
     5    2   35 1
     6    3    4 ar
     7    3    7 1
     8    4    5 ar
     9    4   36 1
    10    5    6 ar
    11    6   37 1
    12    7    8 am
    13    7   38 1
    14    8    9 2
    15    8   10 am
    16   10   39 1
    17   10   11 1
    18   11   12 1
    19   11   16 2
    20   12   13 2
    21   12   40 1
    22   13   15 1
    23   14   15 1
    24   15   16 1
    25   16   17 1
    26   17   26 2
    27   17   18 1
    28   18   19 1
    29   18   20 1
    30   20   25 ar
    31   20   21 ar
    32   21   22 ar
    33   21   41 1
    34   22   23 ar
    35   22   42 1
    36   23   24 ar
    37   23   27 1
    38   24   25 ar
    39   24   43 1
    40   25   26 1
    41   27   28 1
    42   27   44 1
    43   27   45 1
    44   28   33 1
    45   28   29 1
    46   29   30 1
    47   29   46 1
    48   29   47 1
    49   30   31 1
    50   30   48 1
    51   30   49 1
    52   31   32 1
    53   32   33 1
    54   32   50 1
    55   32   51 1
    56   33   52 1
    57   33   53 1
@<TRIPOS>MOLECULE
CHEMBL456963
   43    45     0     0     0
SMALL
USER_CHARGES

@<TRIPOS>ATOM
      1 C1         -0.0167    1.3788    0.0096 C.ar      1 <0>        -0.0383
      2 C2          1.1668    2.0946    0.0022 C.ar      1 <0>        -0.1630
      3 C3          2.3797    1.4320   -0.0134 C.ar      1 <0>         0.1680
      4 C4          2.4080    0.0333   -0.0211 C.ar      1 <0>        -0.2035
      5 C5          1.2060   -0.6828   -0.0130 C.ar      1 <0>         0.1680
      6 C6          0.0021   -0.0041    0.0020 C.ar      1 <0>        -0.1630
      7 F1          1.2222   -2.0337   -0.0208 F         1 <0>        -0.1192
      8 C7          3.6978   -0.6825   -0.0382 C.2       1 <0>         0.5698
      9 O1          4.2403   -0.9832    1.0078 O.2       1 <0>        -0.5063
     10 N1          4.2750   -1.0033   -1.2131 N.am      1 <0>        -0.6180
     11 C8          5.5015   -1.6840   -1.2294 C.2       1 <0>         0.0812
     12 C9          6.2300   -2.0947   -0.1573 C.2       1 <0>        -0.0218
     13 N2          7.3401   -2.7086   -0.6417 N.pl3     1 <0>        -0.3704
     14 H1          8.0400   -3.1007   -0.0964 H         1 <0>         0.4547
     15 N3          7.3298   -2.6955   -1.9261 N.2       1 <0>        -0.2390
     16 C10         6.2416   -2.0952   -2.3681 C.2       1 <0>        -0.0322
     17 C11         5.8667   -1.8872   -3.7794 C.2       1 <0>         0.6105
     18 O2          4.8314   -1.3123   -4.0551 O.2       1 <0>        -0.5387
     19 N4          6.6718   -2.3344   -4.7635 N.am      1 <0>        -0.7108
     20 C12         6.2995   -2.1279   -6.1652 C.3       1 <0>         0.1451
     21 C13         5.3671   -3.2539   -6.6165 C.3       1 <0>        -0.1298
     22 C14         4.9782   -3.0382   -8.0804 C.3       1 <0>        -0.1171
     23 C15         6.2382   -3.0407   -8.9485 C.3       1 <0>        -0.1231
     24 C16         7.1706   -1.9147   -8.4972 C.3       1 <0>        -0.1159
     25 C17         7.5594   -2.1304   -7.0332 C.3       1 <0>        -0.1271
     26 F2          3.5345    2.1331   -0.0215 F         1 <0>        -0.1192
     27 H2         -0.9609    1.9029    0.0260 H         1 <0>         0.1530
     28 H3          1.1430    3.1743    0.0082 H         1 <0>         0.1533
     29 H4         -0.9267   -0.5552    0.0082 H         1 <0>         0.1532
     30 H5          3.8423   -0.7635   -2.0475 H         1 <0>         0.4280
     31 H6          5.9743   -1.9582    0.8830 H         1 <0>         0.2090
     32 H7          7.4978   -2.7931   -4.5435 H         1 <0>         0.4076
     33 H8          5.7892   -1.1703   -6.2683 H         1 <0>         0.0913
     34 H9          5.8774   -4.2115   -6.5134 H         1 <0>         0.0645
     35 H10         4.4695   -3.2521   -5.9981 H         1 <0>         0.0681
     36 H11         4.3140   -3.8404   -8.4019 H         1 <0>         0.0656
     37 H12         4.4679   -2.0806   -8.1835 H         1 <0>         0.0651
     38 H13         6.7485   -3.9983   -8.8454 H         1 <0>         0.0630
     39 H14         5.9612   -2.8870   -9.9914 H         1 <0>         0.0646
     40 H15         8.0682   -1.9165   -9.1156 H         1 <0>         0.0682
     41 H16         6.6602   -0.9571   -8.6003 H         1 <0>         0.0658
     42 H17         8.2237   -1.3282   -6.7118 H         1 <0>         0.0699
     43 H18         8.0698   -3.0880   -6.9302 H         1 <0>         0.0693
@<TRIPOS>BOND
     1    1    6 ar
     2    1    2 ar
     3    1   27 1
     4    2    3 ar
     5    2   28 1
     6    3    4 ar
     7    3   26 1
     8    4    5 ar
     9    4    8 1
    10    5    6 ar
    11    5    7 1
    12    6   29 1
    13    8    9 2
    14    8   10 am
    15   10   11 1
    16   10   30 1
    17   11   16 1
    18   11   12 2
    19   12   13 1
    20   12   31 1
    21   13   14 1
    22   13   15 1
    23   15   16 2
    24   16   17 1
    25   17   18 2
    26   17   19 am
    27   19   20 1
    28   19   32 1
    29   20   25 1
    30   20   21 1
    31   20   33 1
    32   21   22 1
    33   21   34 1
    34   21   35 1
    35   22   23 1
    36   22   36 1
    37   22   37 1
    38   23   24 1
    39   23   38 1
    40   23   39 1
    41   24   25 1
    42   24   40 1
    43   24   41 1
    44   25   42 1
    45   25   43 1
@<TRIPOS>MOLECULE
CHEMBL456963
   43    45     0     0     0
SMALL
USER_CHARGES

@<TRIPOS>ATOM
      1 C1         -0.0167    1.3789    0.0096 C.ar      1 <0>        -0.0377
      2 C2          1.1667    2.0947    0.0022 C.ar      1 <0>        -0.1630
      3 C3          2.3797    1.4322   -0.0129 C.ar      1 <0>         0.1686
      4 C4          2.4080    0.0333   -0.0207 C.ar      1 <0>        -0.2051
      5 C5          1.2060   -0.6828   -0.0130 C.ar      1 <0>         0.1687
      6 C6          0.0021   -0.0041    0.0020 C.ar      1 <0>        -0.1630
      7 F1          1.2221   -2.0337   -0.0208 F         1 <0>        -0.1188
      8 C7          3.6977   -0.6824   -0.0373 C.2       1 <0>         0.5728
      9 O1          4.2398   -0.9830    1.0089 O.2       1 <0>        -0.4938
     10 N1          4.2754   -1.0032   -1.2120 N.am      1 <0>        -0.6204
     11 C8          5.4958   -1.6804   -1.2277 C.2       1 <0>         0.1219
     12 C9          6.2525   -2.1007   -0.1222 C.2       1 <0>         0.0045
     13 N2          7.3253   -2.6959   -0.5729 N.2       1 <0>        -0.2425
     14 H1          8.0483   -3.0965   -2.4007 H         1 <0>         0.4482
     15 N3          7.3460   -2.7070   -1.8567 N.pl3     1 <0>        -0.3736
     16 C10         6.2215   -2.0898   -2.3424 C.2       1 <0>        -0.0853
     17 C11         5.8594   -1.8973   -3.7498 C.2       1 <0>         0.6009
     18 O2          4.8250   -1.3252   -4.0392 O.2       1 <0>        -0.5293
     19 N4          6.6720   -2.3540   -4.7232 N.am      1 <0>        -0.7220
     20 C12         6.3101   -2.1617   -6.1298 C.3       1 <0>         0.1463
     21 C13         5.3815   -3.2926   -6.5767 C.3       1 <0>        -0.1300
     22 C14         5.0035   -3.0917   -8.0456 C.3       1 <0>        -0.1175
     23 C15         6.2699   -3.1023   -8.9041 C.3       1 <0>        -0.1234
     24 C16         7.1985   -1.9714   -8.4572 C.3       1 <0>        -0.1162
     25 C17         7.5765   -2.1723   -6.9883 C.3       1 <0>        -0.1276
     26 F2          3.5345    2.1332   -0.0206 F         1 <0>        -0.1188
     27 H2         -0.9609    1.9029    0.0260 H         1 <0>         0.1531
     28 H3          1.1430    3.1744    0.0078 H         1 <0>         0.1535
     29 H4         -0.9267   -0.5552    0.0082 H         1 <0>         0.1535
     30 H5          3.8430   -0.7634   -2.0465 H         1 <0>         0.4267
     31 H6          5.9942   -1.9571    0.9165 H         1 <0>         0.2107
     32 H7          7.4964   -2.8101   -4.4926 H         1 <0>         0.3958
     33 H8          5.8002   -1.2054   -6.2462 H         1 <0>         0.0936
     34 H9          5.8914   -4.2489   -6.4602 H         1 <0>         0.0644
     35 H10         4.4793   -3.2850   -5.9651 H         1 <0>         0.0688
     36 H11         4.3419   -3.8973   -8.3640 H         1 <0>         0.0667
     37 H12         4.4936   -2.1354   -8.1621 H         1 <0>         0.0657
     38 H13         6.7798   -4.0586   -8.7876 H         1 <0>         0.0631
     39 H14         6.0006   -2.9592   -9.9506 H         1 <0>         0.0658
     40 H15         8.1007   -1.9790   -9.0688 H         1 <0>         0.0692
     41 H16         6.6886   -1.0151   -8.5736 H         1 <0>         0.0666
     42 H17         8.2380   -1.3667   -6.6699 H         1 <0>         0.0701
     43 H18         8.0864   -3.1286   -6.8718 H         1 <0>         0.0690
@<TRIPOS>BOND
     1    1    6 ar
     2    1    2 ar
     3    1   27 1
     4    2    3 ar
     5    2   28 1
     6    3    4 ar
     7    3   26 1
     8    4    5 ar
     9    4    8 1
    10    5    6 ar
    11    5    7 1
    12    6   29 1
    13    8    9 2
    14    8   10 am
    15   10   30 1
    16   10   11 1
    17   11   12 1
    18   11   16 2
    19   12   13 2
    20   12   31 1
    21   13   15 1
    22   14   15 1
    23   15   16 1
    24   16   17 1
    25   17   18 2
    26   17   19 am
    27   19   20 1
    28   19   32 1
    29   20   25 1
    30   20   21 1
    31   20   33 1
    32   21   22 1
    33   21   34 1
    34   21   35 1
    35   22   23 1
    36   22   36 1
    37   22   37 1
    38   23   24 1
    39   23   38 1
    40   23   39 1
    41   24   25 1
    42   24   40 1
    43   24   41 1
    44   25   42 1
    45   25   43 1
@<TRIPOS>MOLECULE
CHEMBL321939
   55    58     0     0     0
SMALL
USER_CHARGES

@<TRIPOS>ATOM
      1 C1          0.5912    1.2796   -0.1931 C.ar      1 <0>        -0.0944
      2 C2          1.6619    2.1507   -0.1749 C.ar      1 <0>        -0.0972
      3 C3          2.9649    1.6557   -0.2350 C.ar      1 <0>        -0.0193
      4 C4          3.1807    0.2806   -0.3129 C.ar      1 <0>        -0.1309
      5 C5          2.0993   -0.5862   -0.3302 C.ar      1 <0>         0.1635
      6 C6          0.8049   -0.0836   -0.2704 C.ar      1 <0>        -0.1041
      7 N1          2.3107   -1.9674   -0.4087 N.am      1 <0>        -0.6782
      8 C7          1.4881   -2.8132    0.2428 C.2       1 <0>         0.7089
      9 O1          0.5188   -2.3818    0.8367 O.2       1 <0>        -0.5492
     10 N2          1.7401   -4.1372    0.2361 N.am      1 <0>        -0.6771
     11 C8          0.8392   -5.0246    0.8385 C.ar      1 <0>         0.1293
     12 C9          0.1442   -4.6435    1.9779 C.ar      1 <0>        -0.0451
     13 C10        -0.7437   -5.5207    2.5701 C.ar      1 <0>        -0.1750
     14 C11        -0.9413   -6.7780    2.0295 C.ar      1 <0>        -0.0533
     15 C12        -0.2514   -7.1624    0.8946 C.ar      1 <0>        -0.1333
     16 C13         0.6348   -6.2872    0.2932 C.ar      1 <0>         0.1082
     17 F1          1.3045   -6.6603   -0.8192 F         1 <0>        -0.1263
     18 C14        -1.4978   -5.1069    3.8074 C.3       1 <0>         0.5128
     19 F2         -2.7040   -4.5020    3.4380 F         1 <0>        -0.1716
     20 F3         -1.7627   -6.2350    4.5912 F         1 <0>        -0.1740
     21 F4         -0.7268   -4.1994    4.5418 F         1 <0>        -0.1733
     22 C15         4.1145    2.5875   -0.2166 C.2       1 <0>         0.1587
     23 C16         4.0496    3.9493   -0.1384 C.2       1 <0>        -0.2721
     24 C17         5.3610    4.4417   -0.1494 C.2       1 <0>         0.3223
     25 N3          6.1860    3.4236   -0.2308 N.2       1 <0>        -0.3134
     26 N4          5.4324    2.2436   -0.2688 N.pl3     1 <0>        -0.4674
     27 H1          5.7856    1.3419   -0.3247 H         1 <0>         0.4415
     28 N5          5.7294    5.7910   -0.0853 N.pl3     1 <0>        -0.6485
     29 C18         7.0715    6.1557   -0.2177 C.ar      1 <0>         0.2377
     30 C19         7.9105    5.4311   -1.0550 C.ar      1 <0>        -0.1616
     31 C20         9.2367    5.7943   -1.1835 C.ar      1 <0>         0.0103
     32 C21         9.7297    6.8779   -0.4797 C.ar      1 <0>        -0.7056
     33 C22         8.8974    7.6013    0.3547 C.ar      1 <0>         0.0109
     34 C23         7.5688    7.2472    0.4834 C.ar      1 <0>        -0.1812
     35 S1         11.4226    7.3374   -0.6462 S.o2      1 <0>         2.7034
     36 O2         11.7678    8.0501    0.5337 O.2       1 <0>        -0.9661
     37 O3         12.1205    6.1723   -1.0641 O.2       1 <0>        -0.9660
     38 N6         11.5157    8.4190   -1.8967 N.pl3     1 <0>        -1.2511
     39 H2         -0.4167    1.6644   -0.1423 H         1 <0>         0.1365
     40 H3          1.4909    3.2153   -0.1145 H         1 <0>         0.1342
     41 H4          4.1872   -0.1080   -0.3601 H         1 <0>         0.1240
     42 H5         -0.0366   -0.7604   -0.2843 H         1 <0>         0.1460
     43 H6          3.0492   -2.3160   -0.9321 H         1 <0>         0.4118
     44 H7          2.5452   -4.4756   -0.1859 H         1 <0>         0.4158
     45 H8          0.2977   -3.6619    2.4015 H         1 <0>         0.1660
     46 H9         -1.6359   -7.4615    2.4951 H         1 <0>         0.1510
     47 H10        -0.4079   -8.1451    0.4748 H         1 <0>         0.1559
     48 H11         3.1481    4.5410   -0.0789 H         1 <0>         0.1556
     49 H12         5.0528    6.4726    0.0510 H         1 <0>         0.4260
     50 H13         7.5262    4.5846   -1.6046 H         1 <0>         0.1419
     51 H14         9.8895    5.2313   -1.8340 H         1 <0>         0.1438
     52 H15         9.2857    8.4470    0.9028 H         1 <0>         0.1458
     53 H16         6.9181    7.8155    1.1315 H         1 <0>         0.1369
     54 H17        10.7127    8.6762   -2.3763 H         1 <0>         0.4164
     55 H18        12.3732    8.7953   -2.1497 H         1 <0>         0.4204
@<TRIPOS>BOND
     1    1    6 ar
     2    1    2 ar
     3    1   39 1
     4    2    3 ar
     5    2   40 1
     6    3    4 ar
     7    3   22 1
     8    4    5 ar
     9    4   41 1
    10    5    6 ar
    11    5    7 1
    12    6   42 1
    13    7    8 am
    14    7   43 1
    15    8    9 2
    16    8   10 am
    17   10   11 1
    18   10   44 1
    19   11   16 ar
    20   11   12 ar
    21   12   13 ar
    22   12   45 1
    23   13   14 ar
    24   13   18 1
    25   14   15 ar
    26   14   46 1
    27   15   16 ar
    28   15   47 1
    29   16   17 1
    30   18   19 1
    31   18   20 1
    32   18   21 1
    33   22   26 1
    34   22   23 2
    35   23   24 1
    36   23   48 1
    37   24   25 2
    38   24   28 1
    39   25   26 1
    40   26   27 1
    41   28   29 1
    42   28   49 1
    43   29   34 ar
    44   29   30 ar
    45   30   31 ar
    46   30   50 1
    47   31   32 ar
    48   31   51 1
    49   32   33 ar
    50   32   35 1
    51   33   34 ar
    52   33   52 1
    53   34   53 1
    54   35   36 2
    55   35   37 2
    56   35   38 1
    57   38   54 1
    58   38   55 1
@<TRIPOS>MOLECULE
CHEMBL321939
   55    58     0     0     0
SMALL
USER_CHARGES

@<TRIPOS>ATOM
      1 C1         -0.5020    1.0867   -0.1476 C.ar      1 <0>        -0.0991
      2 C2          0.6990    1.7479   -0.3129 C.ar      1 <0>        -0.1045
      3 C3          1.8824    1.0230   -0.4384 C.ar      1 <0>         0.0012
      4 C4          1.8500   -0.3683   -0.3965 C.ar      1 <0>        -0.0893
      5 C5          0.6403   -1.0249   -0.2303 C.ar      1 <0>         0.1568
      6 C6         -0.5351   -0.2940   -0.1059 C.ar      1 <0>        -0.1328
      7 N1          0.6028   -2.4233   -0.1881 N.am      1 <0>        -0.6770
      8 C7          1.6236   -3.1084    0.3642 C.2       1 <0>         0.7058
      9 O1          2.5322   -2.5115    0.9089 O.2       1 <0>        -0.5451
     10 N2          1.6372   -4.4551    0.3128 N.am      1 <0>        -0.6770
     11 C8          2.6501   -5.1706    0.9640 C.ar      1 <0>         0.1325
     12 C9          3.9216   -4.6263    1.0805 C.ar      1 <0>        -0.0489
     13 C10         4.9188   -5.3342    1.7232 C.ar      1 <0>        -0.1741
     14 C11         4.6523   -6.5843    2.2508 C.ar      1 <0>        -0.0564
     15 C12         3.3873   -7.1308    2.1374 C.ar      1 <0>        -0.1329
     16 C13         2.3827   -6.4253    1.5002 C.ar      1 <0>         0.1049
     17 F1          1.1451   -6.9565    1.3945 F         1 <0>        -0.1272
     18 C14         6.2993   -4.7432    1.8491 C.3       1 <0>         0.5123
     19 F2          6.3837   -4.0034    3.0335 F         1 <0>        -0.1722
     20 F3          7.2467   -5.7723    1.8737 F         1 <0>        -0.1748
     21 F4          6.5493   -3.9053    0.7570 F         1 <0>        -0.1724
     22 C15         3.1740    1.7322   -0.6166 C.2       1 <0>         0.1419
     23 C16         3.3626    3.1262   -0.5780 C.2       1 <0>        -0.2947
     24 C17         4.6839    3.3724   -0.7835 C.2       1 <0>         0.3401
     25 N3          5.3066    2.1753   -0.9460 N.pl3     1 <0>        -0.4910
     26 N4          4.3423    1.1660   -0.8324 N.2       1 <0>        -0.2688
     27 H1          6.2537    2.0430   -1.1087 H         1 <0>         0.4401
     28 N5          5.2900    4.6256   -0.8212 N.pl3     1 <0>        -0.6566
     29 C18         6.6364    4.7399   -1.1760 C.ar      1 <0>         0.2302
     30 C19         7.1860    3.8724   -2.1117 C.ar      1 <0>        -0.2066
     31 C20         8.5173    3.9883   -2.4600 C.ar      1 <0>         0.0239
     32 C21         9.3033    4.9664   -1.8785 C.ar      1 <0>        -0.7064
     33 C22         8.7595    5.8315   -0.9467 C.ar      1 <0>         0.0216
     34 C23         7.4275    5.7250   -0.5980 C.ar      1 <0>        -0.1769
     35 S1         11.0016    5.1102   -2.3254 S.o2      1 <0>         2.7040
     36 O2         11.6546    5.7519   -1.2386 O.2       1 <0>        -0.9625
     37 O3         11.4031    3.8364   -2.8106 O.2       1 <0>        -0.9625
     38 N6         11.0834    6.1530   -3.6092 N.pl3     1 <0>        -1.2503
     39 H2         -1.4175    1.6505   -0.0460 H         1 <0>         0.1337
     40 H3          0.7210    2.8272   -0.3453 H         1 <0>         0.1307
     41 H4          2.7646   -0.9345   -0.4937 H         1 <0>         0.1444
     42 H5         -1.4769   -0.8065    0.0236 H         1 <0>         0.1289
     43 H6         -0.1578   -2.8994   -0.5564 H         1 <0>         0.4114
     44 H7          0.9456   -4.9289   -0.1751 H         1 <0>         0.4154
     45 H8          4.1314   -3.6502    0.6686 H         1 <0>         0.1698
     46 H9          5.4342   -7.1352    2.7523 H         1 <0>         0.1500
     47 H10         3.1824   -8.1074    2.5505 H         1 <0>         0.1551
     48 H11         2.5948    3.8681   -0.4150 H         1 <0>         0.1549
     49 H12         4.7773    5.4191   -0.6012 H         1 <0>         0.4322
     50 H13         6.5729    3.1081   -2.5660 H         1 <0>         0.1368
     51 H14         8.9453    3.3140   -3.1871 H         1 <0>         0.1500
     52 H15         9.3761    6.5942   -0.4945 H         1 <0>         0.1506
     53 H16         7.0022    6.4041    0.1262 H         1 <0>         0.1421
     54 H17        10.2726    6.5504   -3.9637 H         1 <0>         0.4167
     55 H18        11.9421    6.3665   -4.0067 H         1 <0>         0.4218
@<TRIPOS>BOND
     1    1    6 ar
     2    1    2 ar
     3    1   39 1
     4    2    3 ar
     5    2   40 1
     6    3    4 ar
     7    3   22 1
     8    4    5 ar
     9    4   41 1
    10    5    6 ar
    11    5    7 1
    12    6   42 1
    13    7    8 am
    14    7   43 1
    15    8    9 2
    16    8   10 am
    17   10   11 1
    18   10   44 1
    19   11   16 ar
    20   11   12 ar
    21   12   13 ar
    22   12   45 1
    23   13   14 ar
    24   13   18 1
    25   14   15 ar
    26   14   46 1
    27   15   16 ar
    28   15   47 1
    29   16   17 1
    30   18   19 1
    31   18   20 1
    32   18   21 1
    33   22   23 1
    34   22   26 2
    35   23   48 1
    36   23   24 2
    37   24   28 1
    38   24   25 1
    39   25   27 1
    40   25   26 1
    41   28   29 1
    42   28   49 1
    43   29   34 ar
    44   29   30 ar
    45   30   31 ar
    46   30   50 1
    47   31   32 ar
    48   31   51 1
    49   32   33 ar
    50   32   35 1
    51   33   34 ar
    52   33   52 1
    53   34   53 1
    54   35   36 2
    55   35   37 2
    56   35   38 1
    57   38   54 1
    58   38   55 1
@<TRIPOS>MOLECULE
CHEMBL1164177
   50    54     0     0     0
SMALL
USER_CHARGES

@<TRIPOS>ATOM
      1 C1         -0.0178    1.4608    0.0101 C.3       1 <0>         0.0678
      2 N1          0.0021   -0.0041    0.0020 N.pl3     1 <0>        -0.4545
      3 C2          0.0085   -0.7994   -1.0894 C.2       1 <0>         0.1937
      4 N2          0.0269   -2.0446   -0.6995 N.2       1 <0>        -0.4939
      5 C3          0.0330   -2.0884    0.6410 C.2       1 <0>         0.0047
      6 C4          0.0236   -0.8221    1.0993 C.2       1 <0>        -0.0573
      7 C5          0.0318   -0.3890    2.5427 C.3       1 <0>         0.2011
      8 N3          1.4083   -0.1150    2.9625 N.am      1 <0>        -0.7250
      9 C6          1.6605    0.2896    4.2231 C.2       1 <0>         0.5648
     10 O1          0.7454    0.4273    5.0120 O.2       1 <0>        -0.5368
     11 C7          3.0467    0.5656    4.6459 C.ar      1 <0>        -0.1211
     12 C8          4.0994    0.4114    3.7318 C.ar      1 <0>        -0.1147
     13 C9          5.3826    0.6628    4.1094 C.ar      1 <0>        -0.0732
     14 C10         5.6598    1.0794    5.4195 C.ar      1 <0>        -0.0785
     15 C11         6.8568    1.4096    6.0991 C.2       1 <0>        -0.1607
     16 C12         6.5313    1.7492    7.3728 C.2       1 <0>         0.1609
     17 N4          5.1698    1.6493    7.5366 N.pl3     1 <0>        -0.5666
     18 H1          4.6840    1.8377    8.3547 H         1 <0>         0.4217
     19 C13         4.6081    1.2375    6.3450 C.ar      1 <0>         0.0911
     20 C14         3.3041    0.9839    5.9502 C.ar      1 <0>        -0.0507
     21 C15         7.4899    2.1614    8.4189 C.2       1 <0>         0.1392
     22 C16         7.2560    3.1485    9.4742 C.2       1 <0>        -0.1925
     23 C17         8.4009    3.2141   10.2109 C.2       1 <0>         0.0827
     24 N5          9.2905    2.3512    9.6818 N.pl3     1 <0>        -0.4679
     25 H2         10.1888    2.1985   10.0144 H         1 <0>         0.4465
     26 N6          8.7156    1.7060    8.5823 N.2       1 <0>        -0.2532
     27 C18         6.0134    3.9271    9.6983 C.ar      1 <0>        -0.0139
     28 C19         5.4143    4.6080    8.6402 C.ar      1 <0>        -0.1070
     29 C20         4.2581    5.3304    8.8543 C.ar      1 <0>        -0.1153
     30 C21         3.6941    5.3799   10.1164 C.ar      1 <0>        -0.1188
     31 C22         4.2844    4.7060   11.1703 C.ar      1 <0>        -0.1164
     32 C23         5.4377    3.9758   10.9665 C.ar      1 <0>        -0.1121
     33 H3          1.0048    1.8381    0.0023 H         1 <0>         0.0798
     34 H4         -0.5450    1.8219   -0.8730 H         1 <0>         0.0914
     35 H5         -0.5280    1.8123    0.9069 H         1 <0>         0.0866
     36 H6         -0.0008   -0.4609   -2.1149 H         1 <0>         0.2082
     37 H7          0.0470   -2.9825    1.2468 H         1 <0>         0.1727
     38 H8         -0.5687    0.5138    2.6545 H         1 <0>         0.0757
     39 H9         -0.3860   -1.1824    3.1624 H         1 <0>         0.0952
     40 H10         2.1383   -0.2248    2.3332 H         1 <0>         0.4027
     41 H11         3.8903    0.0908    2.7219 H         1 <0>         0.1236
     42 H12         6.1877    0.5410    3.3999 H         1 <0>         0.1309
     43 H13         7.8517    1.3942    5.6793 H         1 <0>         0.1522
     44 H14         2.4915    1.1058    6.6511 H         1 <0>         0.1361
     45 H15         8.5664    3.8478   11.0696 H         1 <0>         0.1860
     46 H16         5.8542    4.5706    7.6545 H         1 <0>         0.1209
     47 H17         3.7929    5.8584    8.0350 H         1 <0>         0.1236
     48 H18         2.7896    5.9471   10.2796 H         1 <0>         0.1230
     49 H19         3.8400    4.7484   12.1538 H         1 <0>         0.1245
     50 H20         5.8955    3.4466   11.7892 H         1 <0>         0.1226
@<TRIPOS>BOND
     1    1    2 1
     2    1   33 1
     3    1   34 1
     4    1   35 1
     5    2    6 1
     6    2    3 1
     7    3    4 2
     8    3   36 1
     9    4    5 1
    10    5    6 2
    11    5   37 1
    12    6    7 1
    13    7    8 1
    14    7   38 1
    15    7   39 1
    16    8    9 am
    17    8   40 1
    18    9   10 2
    19    9   11 1
    20   11   20 ar
    21   11   12 ar
    22   12   13 ar
    23   12   41 1
    24   13   14 ar
    25   13   42 1
    26   14   19 ar
    27   14   15 1
    28   15   16 2
    29   15   43 1
    30   16   17 1
    31   16   21 1
    32   17   18 1
    33   17   19 1
    34   19   20 ar
    35   20   44 1
    36   21   26 2
    37   21   22 1
    38   22   23 2
    39   22   27 1
    40   23   24 1
    41   23   45 1
    42   24   25 1
    43   24   26 1
    44   27   32 ar
    45   27   28 ar
    46   28   29 ar
    47   28   46 1
    48   29   30 ar
    49   29   47 1
    50   30   31 ar
    51   30   48 1
    52   31   32 ar
    53   31   49 1
    54   32   50 1
@<TRIPOS>MOLECULE
CHEMBL1164177
   51    55     0     0     0
SMALL
USER_CHARGES

@<TRIPOS>ATOM
      1 C1         -0.9373    0.0272    1.2291 C.3       1 <0>         0.0501
      2 N1         -0.8728   -1.4233    1.4239 N.pl3     1 <0>        -0.4016
      3 C2         -0.9604   -2.3659    0.4608 C.cat     1 <0>         0.2974
      4 N2         -0.8608   -3.5425    1.0166 N.pl3     1 <0>        -0.4761
      5 C3         -0.7077   -3.3946    2.3409 C.2       1 <0>         0.0320
      6 C4         -0.7066   -2.0762    2.6155 C.2       1 <0>         0.0262
      7 C5         -0.5550   -1.4417    3.9740 C.3       1 <0>         0.1853
      8 N3          0.8498   -1.0894    4.1944 N.am      1 <0>        -0.7370
      9 C6          1.2248   -0.5054    5.3497 C.2       1 <0>         0.5732
     10 O1          0.3971   -0.2708    6.2091 O.2       1 <0>        -0.5209
     11 C7          2.6394   -0.1507    5.5716 C.ar      1 <0>        -0.1323
     12 C8          3.5908   -0.4174    4.5759 C.ar      1 <0>        -0.1162
     13 C9          4.8989   -0.0956    4.7684 C.ar      1 <0>        -0.0721
     14 C10         5.3043    0.5077    5.9685 C.ar      1 <0>        -0.0711
     15 C11         6.5568    0.9489    6.4552 C.2       1 <0>        -0.1771
     16 C12         6.3621    1.4629    7.7003 C.2       1 <0>         0.1550
     17 N4          5.0282    1.3661    8.0275 N.pl3     1 <0>        -0.5593
     18 H1          4.6279    1.6614    8.8602 H         1 <0>         0.4262
     19 C13         4.3546    0.7800    6.9749 C.ar      1 <0>         0.0904
     20 C14         3.0240    0.4533    6.7676 C.ar      1 <0>        -0.0408
     21 C15         7.4107    2.0315    8.5603 C.2       1 <0>         0.1359
     22 C16         7.3039    3.1682    9.3559 C.2       1 <0>        -0.1688
     23 C17         8.5392    3.3419   10.0030 C.2       1 <0>         0.0700
     24 N5          9.3437    2.3819    9.6310 N.2       1 <0>        -0.2652
     25 H2          9.0406    0.7504    8.3115 H         1 <0>         0.4457
     26 N6          8.6727    1.5416    8.7352 N.pl3     1 <0>        -0.4530
     27 C18         6.1097    4.0349    9.4943 C.ar      1 <0>        -0.0205
     28 C19         5.5214    4.6016    8.3642 C.ar      1 <0>        -0.1052
     29 C20         4.4093    5.4074    8.4993 C.ar      1 <0>        -0.1177
     30 C21         3.8781    5.6534    9.7527 C.ar      1 <0>        -0.1166
     31 C22         4.4578    5.0943   10.8776 C.ar      1 <0>        -0.1160
     32 C23         5.5666    4.2822   10.7545 C.ar      1 <0>        -0.1073
     33 H3          0.0661    0.4153    1.0541 H         1 <0>         0.1139
     34 H4         -1.5684    0.2505    0.3689 H         1 <0>         0.1202
     35 H5         -1.3577    0.4951    2.1193 H         1 <0>         0.1178
     36 H6         -1.0917   -2.1773   -0.5944 H         1 <0>         0.2645
     37 H7         -0.6000   -4.1929    3.0603 H         1 <0>         0.2275
     38 H8         -1.1676   -0.5416    4.0250 H         1 <0>         0.1002
     39 H9         -0.8780   -2.1450    4.7416 H         1 <0>         0.1170
     40 H10         1.5101   -1.2766    3.5089 H         1 <0>         0.4038
     41 H11         3.2831   -0.8817    3.6506 H         1 <0>         0.1195
     42 H12         5.6254   -0.3048    3.9971 H         1 <0>         0.1324
     43 H13         7.4998    0.8881    5.9323 H         1 <0>         0.1535
     44 H14         2.2889    0.6616    7.5309 H         1 <0>         0.1390
     45 H15         8.7830    4.1366   10.6925 H         1 <0>         0.1935
     46 H16         5.9354    4.4105    7.3852 H         1 <0>         0.1189
     47 H17         3.9530    5.8471    7.6248 H         1 <0>         0.1225
     48 H18         3.0077    6.2847    9.8536 H         1 <0>         0.1235
     49 H19         4.0391    5.2905   11.8536 H         1 <0>         0.1262
     50 H20         6.0154    3.8424   11.6329 H         1 <0>         0.1255
     51 H21        -0.8929   -4.3902    0.5462 H         1 <0>         0.4680
@<TRIPOS>BOND
     1    1    2 1
     2    1   33 1
     3    1   34 1
     4    1   35 1
     5    2    6 1
     6    2    3 1
     7    3    4 2
     8    3   36 1
     9    4    5 1
    10    4   51 1
    11    5    6 2
    12    5   37 1
    13    6    7 1
    14    7    8 1
    15    7   38 1
    16    7   39 1
    17    8    9 am
    18    8   40 1
    19    9   10 2
    20    9   11 1
    21   11   20 ar
    22   11   12 ar
    23   12   13 ar
    24   12   41 1
    25   13   14 ar
    26   13   42 1
    27   14   19 ar
    28   14   15 1
    29   15   16 2
    30   15   43 1
    31   16   17 1
    32   16   21 1
    33   17   18 1
    34   17   19 1
    35   19   20 ar
    36   20   44 1
    37   21   22 2
    38   21   26 1
    39   22   23 1
    40   22   27 1
    41   23   24 2
    42   23   45 1
    43   24   26 1
    44   25   26 1
    45   27   32 ar
    46   27   28 ar
    47   28   29 ar
    48   28   46 1
    49   29   30 ar
    50   29   47 1
    51   30   31 ar
    52   30   48 1
    53   31   32 ar
    54   31   49 1
    55   32   50 1
@<TRIPOS>MOLECULE
CHEMBL1164177
   51    55     0     0     0
SMALL
USER_CHARGES

@<TRIPOS>ATOM
      1 C1         -0.0178    1.4608    0.0101 C.3       1 <0>         0.0501
      2 N1          0.0021   -0.0041    0.0020 N.pl3     1 <0>        -0.4015
      3 C2          0.0085   -0.7994   -1.0894 C.cat     1 <0>         0.2968
      4 N2          0.0269   -2.0446   -0.6995 N.pl3     1 <0>        -0.4760
      5 C3          0.0330   -2.0884    0.6410 C.2       1 <0>         0.0315
      6 C4          0.0236   -0.8221    1.0993 C.2       1 <0>         0.0268
      7 C5          0.0318   -0.3890    2.5427 C.3       1 <0>         0.1853
      8 N3          1.4083   -0.1150    2.9625 N.am      1 <0>        -0.7375
      9 C6          1.6605    0.2896    4.2231 C.2       1 <0>         0.5739
     10 O1          0.7454    0.4273    5.0120 O.2       1 <0>        -0.5226
     11 C7          3.0467    0.5656    4.6459 C.ar      1 <0>        -0.1354
     12 C8          4.0994    0.4114    3.7318 C.ar      1 <0>        -0.1182
     13 C9          5.3826    0.6628    4.1094 C.ar      1 <0>        -0.0714
     14 C10         5.6598    1.0794    5.4195 C.ar      1 <0>        -0.0718
     15 C11         6.8568    1.4096    6.0991 C.2       1 <0>        -0.1653
     16 C12         6.5313    1.7492    7.3728 C.2       1 <0>         0.1749
     17 N4          5.1698    1.6493    7.5366 N.pl3     1 <0>        -0.5641
     18 H1          4.6840    1.8377    8.3547 H         1 <0>         0.4242
     19 C13         4.6081    1.2375    6.3450 C.ar      1 <0>         0.0886
     20 C14         3.3041    0.9839    5.9502 C.ar      1 <0>        -0.0409
     21 C15         7.4899    2.1614    8.4189 C.2       1 <0>         0.1309
     22 C16         7.2560    3.1485    9.4742 C.2       1 <0>        -0.1920
     23 C17         8.4009    3.2141   10.2109 C.2       1 <0>         0.0858
     24 N5          9.2905    2.3512    9.6818 N.pl3     1 <0>        -0.4645
     25 H2         10.1888    2.1985   10.0144 H         1 <0>         0.4484
     26 N6          8.7156    1.7060    8.5823 N.2       1 <0>        -0.2502
     27 C18         6.0134    3.9271    9.6983 C.ar      1 <0>        -0.0150
     28 C19         5.4143    4.6080    8.6402 C.ar      1 <0>        -0.1091
     29 C20         4.2581    5.3304    8.8543 C.ar      1 <0>        -0.1162
     30 C21         3.6941    5.3799   10.1164 C.ar      1 <0>        -0.1182
     31 C22         4.2844    4.7060   11.1703 C.ar      1 <0>        -0.1148
     32 C23         5.4377    3.9758   10.9665 C.ar      1 <0>        -0.1109
     33 H3          1.0048    1.8381    0.0023 H         1 <0>         0.1141
     34 H4         -0.5450    1.8219   -0.8730 H         1 <0>         0.1199
     35 H5         -0.5280    1.8123    0.9069 H         1 <0>         0.1178
     36 H6         -0.0008   -0.4609   -2.1149 H         1 <0>         0.2644
     37 H7          0.0470   -2.9825    1.2468 H         1 <0>         0.2275
     38 H8         -0.5687    0.5138    2.6545 H         1 <0>         0.0998
     39 H9         -0.3860   -1.1824    3.1624 H         1 <0>         0.1167
     40 H10         2.1383   -0.2248    2.3332 H         1 <0>         0.4039
     41 H11         3.8903    0.0908    2.7219 H         1 <0>         0.1182
     42 H12         6.1877    0.5410    3.3999 H         1 <0>         0.1318
     43 H13         7.8517    1.3942    5.6793 H         1 <0>         0.1548
     44 H14         2.4915    1.1058    6.6511 H         1 <0>         0.1376
     45 H15         8.5664    3.8478   11.0696 H         1 <0>         0.1879
     46 H16         5.8542    4.5706    7.6545 H         1 <0>         0.1198
     47 H17         3.7929    5.8584    8.0350 H         1 <0>         0.1230
     48 H18         2.7896    5.9471   10.2796 H         1 <0>         0.1237
     49 H19         3.8400    4.7484   12.1538 H         1 <0>         0.1259
     50 H20         5.8955    3.4466   11.7892 H         1 <0>         0.1237
     51 H21         0.0348   -2.8168   -1.2866 H         1 <0>         0.4679
@<TRIPOS>BOND
     1    1    2 1
     2    1   33 1
     3    1   34 1
     4    1   35 1
     5    2    6 1
     6    2    3 1
     7    3    4 2
     8    3   36 1
     9    4    5 1
    10    4   51 1
    11    5    6 2
    12    5   37 1
    13    6    7 1
    14    7    8 1
    15    7   38 1
    16    7   39 1
    17    8    9 am
    18    8   40 1
    19    9   10 2
    20    9   11 1
    21   11   20 ar
    22   11   12 ar
    23   12   13 ar
    24   12   41 1
    25   13   14 ar
    26   13   42 1
    27   14   19 ar
    28   14   15 1
    29   15   16 2
    30   15   43 1
    31   16   17 1
    32   16   21 1
    33   17   18 1
    34   17   19 1
    35   19   20 ar
    36   20   44 1
    37   21   26 2
    38   21   22 1
    39   22   23 2
    40   22   27 1
    41   23   24 1
    42   23   45 1
    43   24   25 1
    44   24   26 1
    45   27   32 ar
    46   27   28 ar
    47   28   29 ar
    48   28   46 1
    49   29   30 ar
    50   29   47 1
    51   30   31 ar
    52   30   48 1
    53   31   32 ar
    54   31   49 1
    55   32   50 1
@<TRIPOS>MOLECULE
CHEMBL1164177
   50    54     0     0     0
SMALL
USER_CHARGES

@<TRIPOS>ATOM
      1 C1         -0.9373    0.0272    1.2291 C.3       1 <0>         0.0678
      2 N1         -0.8728   -1.4233    1.4239 N.pl3     1 <0>        -0.4545
      3 C2         -0.9604   -2.3659    0.4608 C.2       1 <0>         0.1943
      4 N2         -0.8608   -3.5425    1.0166 N.2       1 <0>        -0.4938
      5 C3         -0.7077   -3.3946    2.3409 C.2       1 <0>         0.0051
      6 C4         -0.7066   -2.0762    2.6155 C.2       1 <0>        -0.0580
      7 C5         -0.5550   -1.4417    3.9740 C.3       1 <0>         0.2010
      8 N3          0.8498   -1.0894    4.1944 N.am      1 <0>        -0.7244
      9 C6          1.2248   -0.5054    5.3497 C.2       1 <0>         0.5640
     10 O1          0.3971   -0.2708    6.2091 O.2       1 <0>        -0.5352
     11 C7          2.6394   -0.1507    5.5716 C.ar      1 <0>        -0.1180
     12 C8          3.5908   -0.4174    4.5759 C.ar      1 <0>        -0.1127
     13 C9          4.8989   -0.0956    4.7684 C.ar      1 <0>        -0.0739
     14 C10         5.3043    0.5077    5.9685 C.ar      1 <0>        -0.0778
     15 C11         6.5568    0.9489    6.4552 C.2       1 <0>        -0.1723
     16 C12         6.3621    1.4629    7.7003 C.2       1 <0>         0.1407
     17 N4          5.0282    1.3661    8.0275 N.pl3     1 <0>        -0.5614
     18 H1          4.6279    1.6614    8.8602 H         1 <0>         0.4237
     19 C13         4.3546    0.7800    6.9749 C.ar      1 <0>         0.0930
     20 C14         3.0240    0.4533    6.7676 C.ar      1 <0>        -0.0506
     21 C15         7.4107    2.0315    8.5603 C.2       1 <0>         0.1460
     22 C16         7.3039    3.1682    9.3559 C.2       1 <0>        -0.1749
     23 C17         8.5392    3.3419   10.0030 C.2       1 <0>         0.0696
     24 N5          9.3437    2.3819    9.6310 N.2       1 <0>        -0.2710
     25 H2          9.0406    0.7504    8.3115 H         1 <0>         0.4455
     26 N6          8.6727    1.5416    8.7352 N.pl3     1 <0>        -0.4541
     27 C18         6.1097    4.0349    9.4943 C.ar      1 <0>        -0.0180
     28 C19         5.5214    4.6016    8.3642 C.ar      1 <0>        -0.1038
     29 C20         4.4093    5.4074    8.4993 C.ar      1 <0>        -0.1168
     30 C21         3.8781    5.6534    9.7527 C.ar      1 <0>        -0.1176
     31 C22         4.4578    5.0943   10.8776 C.ar      1 <0>        -0.1173
     32 C23         5.5666    4.2822   10.7545 C.ar      1 <0>        -0.1087
     33 H3          0.0661    0.4153    1.0541 H         1 <0>         0.0797
     34 H4         -1.5684    0.2505    0.3689 H         1 <0>         0.0917
     35 H5         -1.3577    0.4951    2.1193 H         1 <0>         0.0866
     36 H6         -1.0917   -2.1773   -0.5944 H         1 <0>         0.2084
     37 H7         -0.6000   -4.1929    3.0603 H         1 <0>         0.1727
     38 H8         -1.1676   -0.5416    4.0250 H         1 <0>         0.0762
     39 H9         -0.8780   -2.1450    4.7416 H         1 <0>         0.0956
     40 H10         1.5101   -1.2766    3.5089 H         1 <0>         0.4026
     41 H11         3.2831   -0.8817    3.6506 H         1 <0>         0.1250
     42 H12         5.6254   -0.3048    3.9971 H         1 <0>         0.1315
     43 H13         7.4998    0.8881    5.9323 H         1 <0>         0.1509
     44 H14         2.2889    0.6616    7.5309 H         1 <0>         0.1375
     45 H15         8.7830    4.1366   10.6925 H         1 <0>         0.1916
     46 H16         5.9354    4.4105    7.3852 H         1 <0>         0.1196
     47 H17         3.9530    5.8471    7.6248 H         1 <0>         0.1228
     48 H18         3.0077    6.2847    9.8536 H         1 <0>         0.1227
     49 H19         4.0391    5.2905   11.8536 H         1 <0>         0.1248
     50 H20         6.0154    3.8424   11.6329 H         1 <0>         0.1243
@<TRIPOS>BOND
     1    1    2 1
     2    1   33 1
     3    1   34 1
     4    1   35 1
     5    2    6 1
     6    2    3 1
     7    3    4 2
     8    3   36 1
     9    4    5 1
    10    5    6 2
    11    5   37 1
    12    6    7 1
    13    7    8 1
    14    7   38 1
    15    7   39 1
    16    8    9 am
    17    8   40 1
    18    9   10 2
    19    9   11 1
    20   11   20 ar
    21   11   12 ar
    22   12   13 ar
    23   12   41 1
    24   13   14 ar
    25   13   42 1
    26   14   19 ar
    27   14   15 1
    28   15   16 2
    29   15   43 1
    30   16   17 1
    31   16   21 1
    32   17   18 1
    33   17   19 1
    34   19   20 ar
    35   20   44 1
    36   21   22 2
    37   21   26 1
    38   22   23 1
    39   22   27 1
    40   23   24 2
    41   23   45 1
    42   24   26 1
    43   25   26 1
    44   27   32 ar
    45   27   28 ar
    46   28   29 ar
    47   28   46 1
    48   29   30 ar
    49   29   47 1
    50   30   31 ar
    51   30   48 1
    52   31   32 ar
    53   31   49 1
    54   32   50 1
@<TRIPOS>MOLECULE
CHEMBL1164262
   50    54     0     0     0
SMALL
USER_CHARGES

@<TRIPOS>ATOM
      1 C1         -0.0178    1.4608    0.0101 C.3       1 <0>         0.0950
      2 N1          0.0021   -0.0041    0.0020 N.pl3     1 <0>        -0.3646
      3 C2          0.0078   -0.7920   -1.0936 C.2       1 <0>         0.0562
      4 C3          0.0272   -2.0789   -0.6760 C.2       1 <0>        -0.2464
      5 C4          0.0335   -2.0775    0.7227 C.2       1 <0>         0.0448
      6 N2          0.0246   -0.8342    1.1302 N.2       1 <0>        -0.2859
      7 C5         -0.0055   -0.3226   -2.5255 C.3       1 <0>         0.1869
      8 N3         -1.3870   -0.0752   -2.9456 N.am      1 <0>        -0.7252
      9 C6         -1.6442    0.3544   -4.1968 C.2       1 <0>         0.5665
     10 O1         -0.7296    0.5367   -4.9771 O.2       1 <0>        -0.5347
     11 C7         -3.0354    0.6035   -4.6198 C.ar      1 <0>        -0.1216
     12 C8         -4.0877    0.3978   -3.7155 C.ar      1 <0>        -0.1147
     13 C9         -5.3755    0.6240   -4.0933 C.ar      1 <0>        -0.0729
     14 C10        -5.6579    1.0662   -5.3940 C.ar      1 <0>        -0.0780
     15 C11        -6.8603    1.3812   -6.0713 C.2       1 <0>        -0.1608
     16 C12        -6.5383    1.7617   -7.3342 C.2       1 <0>         0.1614
     17 N4         -5.1738    1.7029   -7.4933 N.pl3     1 <0>        -0.5666
     18 H1         -4.6895    1.9250   -8.3038 H         1 <0>         0.4218
     19 C13        -4.6066    1.2761   -6.3095 C.ar      1 <0>         0.0909
     20 C14        -3.2981    1.0478   -5.9144 C.ar      1 <0>        -0.0499
     21 C15        -7.5029    2.1744   -8.3746 C.2       1 <0>         0.1390
     22 C16        -7.2910    3.1940   -9.4034 C.2       1 <0>        -0.1924
     23 C17        -8.4338    3.2475  -10.1441 C.2       1 <0>         0.0827
     24 N5         -9.3021    2.3477   -9.6418 N.pl3     1 <0>        -0.4679
     25 H2        -10.1944    2.1793   -9.9829 H         1 <0>         0.4465
     26 N6         -8.7150    1.6905   -8.5559 N.2       1 <0>        -0.2531
     27 C18        -6.0689    4.0113   -9.6011 C.ar      1 <0>        -0.0141
     28 C19        -5.4933    4.6809   -8.5229 C.ar      1 <0>        -0.1071
     29 C20        -4.3561    5.4396   -8.7126 C.ar      1 <0>        -0.1152
     30 C21        -3.7879    5.5363   -9.9700 C.ar      1 <0>        -0.1188
     31 C22        -4.3550    4.8738  -11.0438 C.ar      1 <0>        -0.1164
     32 C23        -5.4889    4.1078  -10.8646 C.ar      1 <0>        -0.1121
     33 H3          1.0048    1.8381    0.0023 H         1 <0>         0.0780
     34 H4         -0.5450    1.8219   -0.8730 H         1 <0>         0.0874
     35 H5         -0.5280    1.8123    0.9069 H         1 <0>         0.0929
     36 H6          0.0356   -2.9528   -1.3105 H         1 <0>         0.1515
     37 H7          0.0482   -2.9516    1.3568 H         1 <0>         0.1870
     38 H8          0.5709    0.5986   -2.6113 H         1 <0>         0.0825
     39 H9          0.4365   -1.0884   -3.1630 H         1 <0>         0.0985
     40 H10        -2.1166   -0.2207   -2.3231 H         1 <0>         0.4040
     41 H11        -3.8747    0.0573   -2.7129 H         1 <0>         0.1239
     42 H12        -6.1803    0.4626   -3.3914 H         1 <0>         0.1312
     43 H13        -7.8563    1.3283   -5.6572 H         1 <0>         0.1523
     44 H14        -2.4859    1.2094   -6.6077 H         1 <0>         0.1364
     45 H15        -8.6125    3.8981  -10.9874 H         1 <0>         0.1860
     46 H16        -5.9366    4.6066   -7.5408 H         1 <0>         0.1210
     47 H17        -3.9092    5.9589   -7.8777 H         1 <0>         0.1237
     48 H18        -2.8984    6.1316  -10.1140 H         1 <0>         0.1230
     49 H19        -3.9073    4.9532  -12.0234 H         1 <0>         0.1244
     50 H20        -5.9284    3.5876  -11.7028 H         1 <0>         0.1225
@<TRIPOS>BOND
     1    1    2 1
     2    1   33 1
     3    1   34 1
     4    1   35 1
     5    2    6 1
     6    2    3 1
     7    3    4 2
     8    3    7 1
     9    4    5 1
    10    4   36 1
    11    5    6 2
    12    5   37 1
    13    7    8 1
    14    7   38 1
    15    7   39 1
    16    8    9 am
    17    8   40 1
    18    9   10 2
    19    9   11 1
    20   11   20 ar
    21   11   12 ar
    22   12   13 ar
    23   12   41 1
    24   13   14 ar
    25   13   42 1
    26   14   19 ar
    27   14   15 1
    28   15   16 2
    29   15   43 1
    30   16   17 1
    31   16   21 1
    32   17   18 1
    33   17   19 1
    34   19   20 ar
    35   20   44 1
    36   21   26 2
    37   21   22 1
    38   22   23 2
    39   22   27 1
    40   23   24 1
    41   23   45 1
    42   24   25 1
    43   24   26 1
    44   27   32 ar
    45   27   28 ar
    46   28   29 ar
    47   28   46 1
    48   29   30 ar
    49   29   47 1
    50   30   31 ar
    51   30   48 1
    52   31   32 ar
    53   31   49 1
    54   32   50 1
@<TRIPOS>MOLECULE
CHEMBL1164262
   50    54     0     0     0
SMALL
USER_CHARGES

@<TRIPOS>ATOM
      1 C1          0.9409    0.0901   -1.2395 C.3       1 <0>         0.0949
      2 N1          0.9190   -1.3595   -1.4507 N.pl3     1 <0>        -0.3645
      3 C2          0.7787   -1.9869   -2.6372 C.2       1 <0>         0.0555
      4 C3          0.8096   -3.3197   -2.4051 C.2       1 <0>        -0.2461
      5 C4          0.9744   -3.5134   -1.0298 C.2       1 <0>         0.0449
      6 N2          1.0462   -2.3390   -0.4574 N.2       1 <0>        -0.2855
      7 C5          0.6162   -1.3223   -3.9799 C.3       1 <0>         0.1868
      8 N3         -0.7966   -1.0026   -4.1988 N.am      1 <0>        -0.7247
      9 C6         -1.1820   -0.3996   -5.3409 C.2       1 <0>         0.5657
     10 O1         -0.3570   -0.1210   -6.1897 O.2       1 <0>        -0.5331
     11 C7         -2.6047   -0.0777   -5.5612 C.ar      1 <0>        -0.1184
     12 C8         -3.5530   -0.3953   -4.5776 C.ar      1 <0>        -0.1128
     13 C9         -4.8685   -0.1040   -4.7687 C.ar      1 <0>        -0.0735
     14 C10        -5.2845    0.5185   -5.9554 C.ar      1 <0>        -0.0773
     15 C11        -6.5463    0.9380   -6.4373 C.2       1 <0>        -0.1724
     16 C12        -6.3598    1.4886   -7.6679 C.2       1 <0>         0.1411
     17 N4         -5.0224    1.4361   -7.9904 N.pl3     1 <0>        -0.5613
     18 H1         -4.6264    1.7632   -8.8133 H         1 <0>         0.4238
     19 C13        -4.3380    0.8418   -6.9495 C.ar      1 <0>         0.0928
     20 C14        -2.9999    0.5459   -6.7435 C.ar      1 <0>        -0.0498
     21 C15        -7.4196    2.0504   -8.5189 C.2       1 <0>         0.1458
     22 C16        -7.3399    3.2094   -9.2848 C.2       1 <0>        -0.1746
     23 C17        -8.5765    3.3662   -9.9338 C.2       1 <0>         0.0696
     24 N5         -9.3564    2.3757   -9.5905 N.2       1 <0>        -0.2709
     25 H2         -9.0153    0.7199   -8.3111 H         1 <0>         0.4455
     26 N6         -8.6670    1.5312   -8.7127 N.pl3     1 <0>        -0.4542
     27 C18        -6.1690    4.1113   -9.3949 C.ar      1 <0>        -0.0182
     28 C19        -5.6015    4.6647   -8.2477 C.ar      1 <0>        -0.1038
     29 C20        -4.5111    5.5033   -8.3565 C.ar      1 <0>        -0.1167
     30 C21        -3.9810    5.7954   -9.6005 C.ar      1 <0>        -0.1175
     31 C22        -4.5401    5.2497  -10.7422 C.ar      1 <0>        -0.1173
     32 C23        -5.6271    4.4051  -10.6456 C.ar      1 <0>        -0.1087
     33 H3          1.9661    0.4527   -1.3141 H         1 <0>         0.0783
     34 H4          0.3272    0.5769   -1.9975 H         1 <0>         0.0872
     35 H5          0.5456    0.3191   -0.2499 H         1 <0>         0.0931
     36 H6          0.7218   -4.0965   -3.1502 H         1 <0>         0.1516
     37 H7          1.0367   -4.4675   -0.5276 H         1 <0>         0.1872
     38 H8          1.2044   -0.4050   -4.0049 H         1 <0>         0.0829
     39 H9          0.9617   -1.9969   -4.7633 H         1 <0>         0.0988
     40 H10        -1.4547   -1.2248   -3.5217 H         1 <0>         0.4039
     41 H11        -3.2371   -0.8744   -3.6627 H         1 <0>         0.1253
     42 H12        -5.5926   -0.3523   -4.0069 H         1 <0>         0.1318
     43 H13        -7.4897    0.8385   -5.9211 H         1 <0>         0.1510
     44 H14        -2.2673    0.7934   -7.4974 H         1 <0>         0.1378
     45 H15        -8.8386    4.1713  -10.6042 H         1 <0>         0.1916
     46 H16        -6.0147    4.4377   -7.2761 H         1 <0>         0.1197
     47 H17        -4.0708    5.9328   -7.4687 H         1 <0>         0.1229
     48 H18        -3.1275    6.4523   -9.6807 H         1 <0>         0.1228
     49 H19        -4.1224    5.4819  -11.7107 H         1 <0>         0.1248
     50 H20        -6.0597    3.9759  -11.5371 H         1 <0>         0.1242
@<TRIPOS>BOND
     1    1    2 1
     2    1   33 1
     3    1   34 1
     4    1   35 1
     5    2    6 1
     6    2    3 1
     7    3    4 2
     8    3    7 1
     9    4    5 1
    10    4   36 1
    11    5    6 2
    12    5   37 1
    13    7    8 1
    14    7   38 1
    15    7   39 1
    16    8    9 am
    17    8   40 1
    18    9   10 2
    19    9   11 1
    20   11   20 ar
    21   11   12 ar
    22   12   13 ar
    23   12   41 1
    24   13   14 ar
    25   13   42 1
    26   14   19 ar
    27   14   15 1
    28   15   16 2
    29   15   43 1
    30   16   17 1
    31   16   21 1
    32   17   18 1
    33   17   19 1
    34   19   20 ar
    35   20   44 1
    36   21   22 2
    37   21   26 1
    38   22   23 1
    39   22   27 1
    40   23   24 2
    41   23   45 1
    42   24   26 1
    43   25   26 1
    44   27   32 ar
    45   27   28 ar
    46   28   29 ar
    47   28   46 1
    48   29   30 ar
    49   29   47 1
    50   30   31 ar
    51   30   48 1
    52   31   32 ar
    53   31   49 1
    54   32   50 1
@<TRIPOS>MOLECULE
CHEMBL150261
   62    66     0     0     0
SMALL
USER_CHARGES

@<TRIPOS>ATOM
      1 C1         -0.0167    1.3781    0.0096 C.ar      1 <0>        -0.1062
      2 C2          1.1709    2.0855    0.0021 C.ar      1 <0>        -0.1203
      3 C3          2.3773    1.4107   -0.0130 C.ar      1 <0>        -0.0987
      4 C4          2.3960    0.0285   -0.0201 C.ar      1 <0>        -0.1207
      5 C5          1.2084   -0.6789   -0.0117 C.ar      1 <0>        -0.0993
      6 C6          0.0021   -0.0041    0.0020 C.ar      1 <0>        -0.1208
      7 C7          3.7112   -0.7071   -0.0376 C.3       1 <0>         0.1770
      8 N1          4.1518   -0.9524    1.3379 N.pl3     1 <0>        -0.6884
      9 C8          5.3416   -1.6177    1.5749 C.ar      1 <0>         0.5408
     10 C9          5.7759   -1.8662    2.8888 C.ar      1 <0>        -0.1465
     11 C10         6.9914   -2.5456    3.0709 C.ar      1 <0>         0.3424
     12 N2          7.6861   -2.9280    2.0037 N.ar      1 <0>        -0.6089
     13 C11         7.2409   -2.6735    0.7842 C.ar      1 <0>         0.6234
     14 N3          6.0952   -2.0401    0.5662 N.ar      1 <0>        -0.6273
     15 N4          7.9933   -3.0880   -0.3024 N.pl3     1 <0>        -0.6986
     16 C12         7.5237   -2.8191   -1.6638 C.3       1 <0>         0.1642
     17 C13         6.5577   -3.9235   -2.0976 C.3       1 <0>        -0.1305
     18 C14         6.0673   -3.6427   -3.5194 C.3       1 <0>        -0.1378
     19 C15         7.2628   -3.6071   -4.4735 C.3       1 <0>         0.0231
     20 C16         8.2288   -2.5027   -4.0398 C.3       1 <0>        -0.1357
     21 C17         8.7192   -2.7835   -2.6180 C.3       1 <0>        -0.1290
     22 N5          6.7920   -3.3375   -5.8386 N.4       1 <0>        -0.6369
     23 N6          7.1674   -2.6500    4.4275 N.pl3     1 <0>        -0.4632
     24 C18         6.0955   -2.0544    5.0258 C.2       1 <0>         0.2426
     25 N7          5.2807   -1.5954    4.1215 N.2       1 <0>        -0.4558
     26 C19         8.2985   -3.2846    5.1086 C.3       1 <0>         0.1357
     27 C20         8.9798   -2.2745    6.0549 C.3       1 <0>        -0.1345
     28 C21         8.3388   -2.5565    7.4365 C.3       1 <0>        -0.1290
     29 C22         8.1966   -4.0988    7.4390 C.3       1 <0>        -0.1253
     30 C23         7.8006   -4.4445    5.9886 C.3       1 <0>        -0.1351
     31 H1         -0.9591    1.9053    0.0259 H         1 <0>         0.1262
     32 H2          1.1563    3.1654    0.0076 H         1 <0>         0.1263
     33 H3          3.3051    1.9634   -0.0196 H         1 <0>         0.1230
     34 H4          1.2231   -1.7588   -0.0176 H         1 <0>         0.1222
     35 H5         -0.9258   -0.5567    0.0082 H         1 <0>         0.1259
     36 H6          3.5884   -1.6586   -0.5549 H         1 <0>         0.0728
     37 H7          4.4573   -0.1052   -0.5563 H         1 <0>         0.0738
     38 H8          3.6095   -0.6484    2.0824 H         1 <0>         0.4222
     39 H9          8.8310   -3.5563   -0.1620 H         1 <0>         0.4148
     40 H10         7.0108   -1.8576   -1.6880 H         1 <0>         0.0975
     41 H11         7.0706   -4.8850   -2.0734 H         1 <0>         0.0743
     42 H12         5.7060   -3.9489   -1.4178 H         1 <0>         0.0913
     43 H13         5.3791   -4.4295   -3.8284 H         1 <0>         0.0900
     44 H14         5.5544   -2.6812   -3.5436 H         1 <0>         0.0913
     45 H15         7.7757   -4.5686   -4.4494 H         1 <0>         0.1429
     46 H16         9.0805   -2.4773   -4.7195 H         1 <0>         0.0935
     47 H17         7.7159   -1.5412   -4.0640 H         1 <0>         0.0919
     48 H18         9.4074   -1.9967   -2.3090 H         1 <0>         0.0929
     49 H19         9.2321   -3.7450   -2.5938 H         1 <0>         0.0813
     50 H20         6.3171   -2.4475   -5.8610 H         1 <0>         0.4336
     51 H21         7.5804   -3.3140   -6.4679 H         1 <0>         0.4362
     52 H22         5.9453   -1.9763    6.0925 H         1 <0>         0.2160
     53 H23         9.0162   -3.6534    4.3758 H         1 <0>         0.1082
     54 H24        10.0549   -2.4501    6.0902 H         1 <0>         0.0882
     55 H25         8.7693   -1.2531    5.7381 H         1 <0>         0.0756
     56 H26         8.9961   -2.2279    8.2416 H         1 <0>         0.0777
     57 H27         7.3624   -2.0784    7.5142 H         1 <0>         0.0694
     58 H28         9.1453   -4.5690    7.6978 H         1 <0>         0.0737
     59 H29         7.4145   -4.4087    8.1321 H         1 <0>         0.0745
     60 H30         6.7173   -4.5353    5.9089 H         1 <0>         0.0753
     61 H31         8.2772   -5.3761    5.6834 H         1 <0>         0.0800
     62 H32         6.1549   -4.0658   -6.1247 H         1 <0>         0.4367
@<TRIPOS>BOND
     1    1    6 ar
     2    1    2 ar
     3    1   31 1
     4    2    3 ar
     5    2   32 1
     6    3    4 ar
     7    3   33 1
     8    4    5 ar
     9    4    7 1
    10    5    6 ar
    11    5   34 1
    12    6   35 1
    13    7    8 1
    14    7   36 1
    15    7   37 1
    16    8    9 1
    17    8   38 1
    18    9   14 ar
    19    9   10 ar
    20   10   25 1
    21   10   11 ar
    22   11   12 ar
    23   11   23 1
    24   12   13 ar
    25   13   14 ar
    26   13   15 1
    27   15   16 1
    28   15   39 1
    29   16   21 1
    30   16   17 1
    31   16   40 1
    32   17   18 1
    33   17   41 1
    34   17   42 1
    35   18   19 1
    36   18   43 1
    37   18   44 1
    38   19   20 1
    39   19   22 1
    40   19   45 1
    41   20   21 1
    42   20   46 1
    43   20   47 1
    44   21   48 1
    45   21   49 1
    46   22   50 1
    47   22   51 1
    48   22   62 1
    49   23   24 1
    50   23   26 1
    51   24   25 2
    52   24   52 1
    53   26   30 1
    54   26   27 1
    55   26   53 1
    56   27   28 1
    57   27   54 1
    58   27   55 1
    59   28   29 1
    60   28   56 1
    61   28   57 1
    62   29   30 1
    63   29   58 1
    64   29   59 1
    65   30   60 1
    66   30   61 1
@<TRIPOS>MOLECULE
CHEMBL270687
   35    37     0     0     0
SMALL
USER_CHARGES

@<TRIPOS>ATOM
      1 C1         -0.0187    1.5258    0.0104 C.3       1 <0>        -0.1512
      2 C2          0.0021   -0.0041    0.0020 C.3       1 <0>        -0.1253
      3 C3         -1.4333   -0.5336    0.0129 C.3       1 <0>         0.0478
      4 O1         -1.4139   -1.9625    0.0050 O.3       1 <0>        -0.2588
      5 C4         -2.6146   -2.5950    0.0131 C.ar      1 <0>         0.2314
      6 C5         -3.8034   -1.8751    0.0224 C.ar      1 <0>        -0.3031
      7 C6         -5.0071   -2.5569    0.0300 C.ar      1 <0>         0.1796
      8 N1         -5.0549   -3.8730    0.0290 N.ar      1 <0>        -0.5232
      9 C7         -3.9526   -4.6138    0.0202 C.ar      1 <0>         0.3130
     10 C8         -2.6938   -3.9922    0.0063 C.ar      1 <0>        -0.1560
     11 C9         -1.7003   -5.0772   -0.0081 C.2       1 <0>        -0.1213
     12 C10        -2.4005   -6.2405   -0.0076 C.2       1 <0>         0.1005
     13 N2         -3.7366   -5.9724    0.0178 N.pl3     1 <0>        -0.5666
     14 H1         -4.4362   -6.6443    0.0225 H         1 <0>         0.4277
     15 C11        -0.2289   -4.9299   -0.0210 C.ar      1 <0>         0.2962
     16 C12         0.5987   -6.0589   -0.0399 C.ar      1 <0>        -0.2899
     17 C13         1.9673   -5.8714   -0.0520 C.ar      1 <0>         0.1926
     18 N3          2.4532   -4.6389   -0.0452 N.ar      1 <0>        -0.5826
     19 C14         1.6473   -3.5873   -0.0272 C.ar      1 <0>         0.5684
     20 N4          0.3302   -3.7203   -0.0204 N.ar      1 <0>        -0.5361
     21 N5          2.1967   -2.3169   -0.0203 N.pl3     1 <0>        -0.8302
     22 H2          1.0039    1.9031    0.0027 H         1 <0>         0.0660
     23 H3         -0.5459    1.8868   -0.8726 H         1 <0>         0.0599
     24 H4         -0.5289    1.8773    0.9072 H         1 <0>         0.0599
     25 H5          0.5123   -0.3556   -0.8948 H         1 <0>         0.0742
     26 H6          0.5293   -0.3651    0.8851 H         1 <0>         0.0739
     27 H7         -1.9435   -0.1821    0.9097 H         1 <0>         0.0641
     28 H8         -1.9605   -0.1726   -0.8702 H         1 <0>         0.0641
     29 H9         -3.7877   -0.7952    0.0241 H         1 <0>         0.1413
     30 H10        -5.9301   -1.9962    0.0373 H         1 <0>         0.1645
     31 H11        -1.9646   -7.2286   -0.0166 H         1 <0>         0.1890
     32 H12         0.1770   -7.0532   -0.0447 H         1 <0>         0.1412
     33 H13         2.6342   -6.7208   -0.0663 H         1 <0>         0.1668
     34 H14         3.1602   -2.2051   -0.0287 H         1 <0>         0.4114
     35 H15         1.6182   -1.5384   -0.0072 H         1 <0>         0.4105
@<TRIPOS>BOND
     1    1    2 1
     2    1   22 1
     3    1   23 1
     4    1   24 1
     5    2    3 1
     6    2   25 1
     7    2   26 1
     8    3    4 1
     9    3   27 1
    10    3   28 1
    11    4    5 1
    12    5   10 ar
    13    5    6 ar
    14    6    7 ar
    15    6   29 1
    16    7    8 ar
    17    7   30 1
    18    8    9 ar
    19    9   13 1
    20    9   10 ar
    21   10   11 1
    22   11   12 2
    23   11   15 1
    24   12   13 1
    25   12   31 1
    26   13   14 1
    27   15   20 ar
    28   15   16 ar
    29   16   17 ar
    30   16   32 1
    31   17   18 ar
    32   17   33 1
    33   18   19 ar
    34   19   20 ar
    35   19   21 1
    36   21   34 1
    37   21   35 1
@<TRIPOS>MOLECULE
CHEMBL462192
   65    68     0     0     0
SMALL
USER_CHARGES

@<TRIPOS>ATOM
      1 C1          1.0060    1.0351   -0.2231 C.3       1 <0>        -0.1252
      2 C2          0.7891   -0.4367   -0.4636 C.cat     1 <0>         0.3356
      3 N1          0.4074   -0.9726   -1.5926 N.pl3     1 <0>        -0.4766
      4 C3          0.3162   -2.2985   -1.4508 C.2       1 <0>         0.0714
      5 C4          0.6582   -2.6060   -0.1685 C.2       1 <0>         0.0697
      6 N2          0.9634   -1.4134    0.4503 N.pl3     1 <0>        -0.3861
      7 C5          1.3929   -1.2387    1.8400 C.3       1 <0>         0.1063
      8 C6          2.7307   -0.4969    1.8708 C.3       1 <0>        -0.1779
      9 C7          0.3422   -0.4271    2.6004 C.3       1 <0>        -0.1796
     10 C8          0.6997   -3.9519    0.4367 C.ar      1 <0>         0.2470
     11 C9          1.7670   -4.3285    1.2645 C.ar      1 <0>        -0.0409
     12 C10         1.7605   -5.6010    1.8082 C.ar      1 <0>         0.1952
     13 N3          0.7548   -6.4183    1.5327 N.ar      1 <0>        -0.5138
     14 C11        -0.2409   -6.0361    0.7471 C.ar      1 <0>         0.5695
     15 N4         -0.2798   -4.8275    0.2096 N.ar      1 <0>        -0.5139
     16 N5         -1.2734   -6.9245    0.4855 N.pl3     1 <0>        -0.6247
     17 C12        -1.3114   -8.1572    1.1316 C.ar      1 <0>         0.1891
     18 C13        -0.8599   -8.2679    2.4436 C.ar      1 <0>        -0.1188
     19 C14        -0.8957   -9.4852    3.0848 C.ar      1 <0>        -0.0361
     20 C15        -1.3867  -10.6109    2.4173 C.ar      1 <0>        -0.1598
     21 C16        -1.8398  -10.4963    1.0999 C.ar      1 <0>        -0.0667
     22 C17        -1.8061   -9.2752    0.4660 C.ar      1 <0>        -0.1463
     23 C18        -1.4261  -11.9175    3.1016 C.2       1 <0>         0.5638
     24 O1         -1.6878  -11.9749    4.2876 O.2       1 <0>        -0.5090
     25 N6         -1.1721  -13.0473    2.4120 N.am      1 <0>        -0.6240
     26 C19        -0.7281  -12.9396    1.0076 C.3       1 <0>         0.0859
     27 C20         0.3978  -13.9447    0.7042 C.3       1 <0>        -0.1602
     28 C21         1.3438  -14.0117    1.8827 C.3       1 <0>        -0.0078
     29 N7          0.9363  -15.1014    2.7669 N.4       1 <0>        -0.3684
     30 C22        -0.0172  -14.7477    3.7474 C.3       1 <0>        -0.0445
     31 C23        -1.3386  -14.3233    3.0767 C.3       1 <0>         0.0972
     32 C24         2.1314  -15.6176    3.4475 C.3       1 <0>        -0.0551
     33 F1          2.7772   -3.4701    1.5246 F         1 <0>        -0.1102
     34 H1          2.0608    1.2739   -0.3593 H         1 <0>         0.1286
     35 H2          0.4089    1.6106   -0.9305 H         1 <0>         0.1227
     36 H3          0.7052    1.2852    0.7942 H         1 <0>         0.1229
     37 H4          0.0230   -3.0012   -2.2167 H         1 <0>         0.2313
     38 H5          1.5080   -2.2152    2.3102 H         1 <0>         0.1306
     39 H6          2.6156    0.4797    1.4006 H         1 <0>         0.0784
     40 H7          3.0504   -0.3669    2.9048 H         1 <0>         0.1056
     41 H8          3.4793   -1.0751    1.3291 H         1 <0>         0.0790
     42 H9         -0.6356   -0.8928    2.4773 H         1 <0>         0.0738
     43 H10         0.6007   -0.3993    3.6589 H         1 <0>         0.1055
     44 H11         0.3129    0.5889    2.2067 H         1 <0>         0.0801
     45 H12         2.5667   -5.9245    2.4499 H         1 <0>         0.2000
     46 H13        -1.9689   -6.6871   -0.1475 H         1 <0>         0.4343
     47 H14        -0.4807   -7.3978    2.9588 H         1 <0>         0.1414
     48 H15        -0.5446   -9.5706    4.1026 H         1 <0>         0.1388
     49 H16        -2.2196  -11.3642    0.5814 H         1 <0>         0.1403
     50 H17        -2.1602   -9.1850   -0.5504 H         1 <0>         0.1397
     51 H18        -1.5732  -13.1396    0.3489 H         1 <0>         0.0914
     52 H19        -0.3642  -11.9286    0.8240 H         1 <0>         0.1106
     53 H20        -0.0328  -14.9303    0.5273 H         1 <0>         0.0929
     54 H21         0.9439  -13.6221   -0.1823 H         1 <0>         0.1266
     55 H22         2.3577  -14.1926    1.5257 H         1 <0>         0.1379
     56 H23         1.3123  -13.0689    2.4287 H         1 <0>         0.1282
     57 H24        -0.1996  -15.6026    4.3985 H         1 <0>         0.1470
     58 H25         0.3671  -13.9192    4.3424 H         1 <0>         0.1318
     59 H26        -2.1145  -14.2371    3.8374 H         1 <0>         0.1292
     60 H27        -1.6313  -15.0771    2.3458 H         1 <0>         0.1024
     61 H28         2.5924  -14.8186    4.0282 H         1 <0>         0.1221
     62 H29         1.8470  -16.4328    4.1128 H         1 <0>         0.1270
     63 H30         2.8416  -15.9844    2.7064 H         1 <0>         0.1267
     64 H31         0.5513  -15.8431    2.2014 H         1 <0>         0.4198
     65 H32         0.2191   -0.4832   -2.4086 H         1 <0>         0.4682
@<TRIPOS>BOND
     1    1    2 1
     2    1   34 1
     3    1   35 1
     4    1   36 1
     5    2    6 1
     6    2    3 2
     7    3    4 1
     8    3   65 1
     9    4    5 2
    10    4   37 1
    11    5    6 1
    12    5   10 1
    13    6    7 1
    14    7    8 1
    15    7    9 1
    16    7   38 1
    17    8   39 1
    18    8   40 1
    19    8   41 1
    20    9   42 1
    21    9   43 1
    22    9   44 1
    23   10   15 ar
    24   10   11 ar
    25   11   12 ar
    26   11   33 1
    27   12   13 ar
    28   12   45 1
    29   13   14 ar
    30   14   15 ar
    31   14   16 1
    32   16   17 1
    33   16   46 1
    34   17   22 ar
    35   17   18 ar
    36   18   19 ar
    37   18   47 1
    38   19   20 ar
    39   19   48 1
    40   20   21 ar
    41   20   23 1
    42   21   22 ar
    43   21   49 1
    44   22   50 1
    45   23   24 2
    46   23   25 am
    47   25   31 1
    48   25   26 1
    49   26   27 1
    50   26   51 1
    51   26   52 1
    52   27   28 1
    53   27   53 1
    54   27   54 1
    55   28   29 1
    56   28   55 1
    57   28   56 1
    58   29   30 1
    59   29   32 1
    60   29   64 1
    61   30   31 1
    62   30   57 1
    63   30   58 1
    64   31   59 1
    65   31   60 1
    66   32   61 1
    67   32   62 1
    68   32   63 1
@<TRIPOS>MOLECULE
CHEMBL462192
   64    67     0     0     0
SMALL
USER_CHARGES

@<TRIPOS>ATOM
      1 C1          1.0060    1.0349   -0.2232 C.3       1 <0>        -0.0828
      2 C2          0.7891   -0.4369   -0.4636 C.2       1 <0>         0.2468
      3 N1          0.4074   -0.9728   -1.5926 N.2       1 <0>        -0.4911
      4 C3          0.3162   -2.2986   -1.4508 C.2       1 <0>         0.0610
      5 C4          0.6582   -2.6062   -0.1685 C.2       1 <0>        -0.0332
      6 N2          0.9633   -1.4135    0.4503 N.pl3     1 <0>        -0.4313
      7 C5          1.3929   -1.2388    1.8400 C.3       1 <0>         0.1160
      8 C6          2.7307   -0.4970    1.8708 C.3       1 <0>        -0.1679
      9 C7          0.3422   -0.4272    2.6004 C.3       1 <0>        -0.1718
     10 C8          0.6997   -3.9521    0.4367 C.ar      1 <0>         0.2906
     11 C9          1.7670   -4.3286    1.2645 C.ar      1 <0>        -0.0530
     12 C10         1.7606   -5.6011    1.8082 C.ar      1 <0>         0.1761
     13 N3          0.7548   -6.4184    1.5327 N.ar      1 <0>        -0.5355
     14 C11        -0.2408   -6.0362    0.7471 C.ar      1 <0>         0.5566
     15 N4         -0.2798   -4.8277    0.2096 N.ar      1 <0>        -0.5191
     16 N5         -1.2733   -6.9247    0.4856 N.pl3     1 <0>        -0.6330
     17 C12        -1.3113   -8.1574    1.1316 C.ar      1 <0>         0.2081
     18 C13        -0.8598   -8.2681    2.4436 C.ar      1 <0>        -0.1222
     19 C14        -0.8957   -9.4853    3.0849 C.ar      1 <0>        -0.0351
     20 C15        -1.3866  -10.6110    2.4173 C.ar      1 <0>        -0.1738
     21 C16        -1.8397  -10.4965    1.0999 C.ar      1 <0>        -0.0664
     22 C17        -1.8061   -9.2753    0.4660 C.ar      1 <0>        -0.1550
     23 C18        -1.4260  -11.9176    3.1016 C.2       1 <0>         0.5671
     24 O1         -1.6876  -11.9751    4.2877 O.2       1 <0>        -0.5138
     25 N6         -1.1719  -13.0474    2.4121 N.am      1 <0>        -0.6254
     26 C19        -0.7280  -12.9397    1.0077 C.3       1 <0>         0.0856
     27 C20         0.3980  -13.9448    0.7043 C.3       1 <0>        -0.1594
     28 C21         1.3439  -14.0119    1.8828 C.3       1 <0>        -0.0084
     29 N7          0.9364  -15.1015    2.7670 N.4       1 <0>        -0.3675
     30 C22        -0.0170  -14.7478    3.7474 C.3       1 <0>        -0.0449
     31 C23        -1.3384  -14.3235    3.0768 C.3       1 <0>         0.0983
     32 C24         2.1315  -15.6177    3.4475 C.3       1 <0>        -0.0547
     33 F1          2.7773   -3.4701    1.5246 F         1 <0>        -0.1132
     34 H1          2.0607    1.2738   -0.3593 H         1 <0>         0.0877
     35 H2          0.4089    1.6105   -0.9305 H         1 <0>         0.0972
     36 H3          0.7052    1.2851    0.7942 H         1 <0>         0.0831
     37 H4          0.0230   -3.0014   -2.2167 H         1 <0>         0.1782
     38 H5          1.5080   -2.2153    2.3102 H         1 <0>         0.1031
     39 H6          2.6156    0.4796    1.4006 H         1 <0>         0.0731
     40 H7          3.0503   -0.3670    2.9048 H         1 <0>         0.0821
     41 H8          3.4793   -1.0752    1.3291 H         1 <0>         0.0685
     42 H9         -0.6356   -0.8929    2.4773 H         1 <0>         0.0635
     43 H10         0.6007   -0.3994    3.6589 H         1 <0>         0.0823
     44 H11         0.3129    0.5888    2.2067 H         1 <0>         0.0746
     45 H12         2.5668   -5.9246    2.4499 H         1 <0>         0.1883
     46 H13        -1.9689   -6.6872   -0.1475 H         1 <0>         0.4321
     47 H14        -0.4806   -7.3979    2.9588 H         1 <0>         0.1430
     48 H15        -0.5445   -9.5707    4.1026 H         1 <0>         0.1351
     49 H16        -2.2195  -11.3644    0.5815 H         1 <0>         0.1362
     50 H17        -2.1601   -9.1852   -0.5503 H         1 <0>         0.1379
     51 H18        -1.5731  -13.1398    0.3490 H         1 <0>         0.0904
     52 H19        -0.3640  -11.9288    0.8241 H         1 <0>         0.1134
     53 H20        -0.0326  -14.9304    0.5274 H         1 <0>         0.0910
     54 H21         0.9441  -13.6222   -0.1822 H         1 <0>         0.1265
     55 H22         2.3578  -14.1927    1.5258 H         1 <0>         0.1375
     56 H23         1.3124  -13.0690    2.4288 H         1 <0>         0.1297
     57 H24        -0.1994  -15.6028    4.3985 H         1 <0>         0.1451
     58 H25         0.3673  -13.9193    4.3424 H         1 <0>         0.1321
     59 H26        -2.1144  -14.2373    3.8375 H         1 <0>         0.1279
     60 H27        -1.6312  -15.0773    2.3459 H         1 <0>         0.1004
     61 H28         2.5925  -14.8187    4.0283 H         1 <0>         0.1222
     62 H29         1.8471  -16.4329    4.1129 H         1 <0>         0.1256
     63 H30         2.8417  -15.9845    2.7065 H         1 <0>         0.1259
     64 H31         0.5515  -15.8432    2.2015 H         1 <0>         0.4187
@<TRIPOS>BOND
     1    1    2 1
     2    1   34 1
     3    1   35 1
     4    1   36 1
     5    2    6 1
     6    2    3 2
     7    3    4 1
     8    4    5 2
     9    4   37 1
    10    5    6 1
    11    5   10 1
    12    6    7 1
    13    7    8 1
    14    7    9 1
    15    7   38 1
    16    8   39 1
    17    8   40 1
    18    8   41 1
    19    9   42 1
    20    9   43 1
    21    9   44 1
    22   10   15 ar
    23   10   11 ar
    24   11   12 ar
    25   11   33 1
    26   12   13 ar
    27   12   45 1
    28   13   14 ar
    29   14   15 ar
    30   14   16 1
    31   16   17 1
    32   16   46 1
    33   17   22 ar
    34   17   18 ar
    35   18   19 ar
    36   18   47 1
    37   19   20 ar
    38   19   48 1
    39   20   21 ar
    40   20   23 1
    41   21   22 ar
    42   21   49 1
    43   22   50 1
    44   23   24 2
    45   23   25 am
    46   25   31 1
    47   25   26 1
    48   26   27 1
    49   26   51 1
    50   26   52 1
    51   27   28 1
    52   27   53 1
    53   27   54 1
    54   28   29 1
    55   28   55 1
    56   28   56 1
    57   29   30 1
    58   29   32 1
    59   29   64 1
    60   30   31 1
    61   30   57 1
    62   30   58 1
    63   31   59 1
    64   31   60 1
    65   32   61 1
    66   32   62 1
    67   32   63 1
@<TRIPOS>MOLECULE
CHEMBL460086
   66    70     0     0     0
SMALL
USER_CHARGES

@<TRIPOS>ATOM
      1 C1         -0.9401   -2.7078   -6.3922 C.3       1 <0>        -0.1396
      2 C2         -0.6434   -3.2830   -5.0313 C.cat     1 <0>         0.3333
      3 N1         -0.0607   -2.6470   -4.0496 N.pl3     1 <0>        -0.4779
      4 C3          0.0425   -3.4555   -2.9907 C.2       1 <0>         0.0684
      5 C4         -0.5034   -4.6572   -3.3280 C.2       1 <0>         0.0763
      6 N2         -0.9419   -4.5349   -4.6286 N.pl3     1 <0>        -0.3916
      7 C5         -1.6046   -5.5707   -5.4249 C.3       1 <0>         0.1088
      8 C6         -3.0221   -5.7934   -4.8939 C.3       1 <0>        -0.1848
      9 C7         -1.6719   -5.1250   -6.8870 C.3       1 <0>        -0.1981
     10 C8         -0.6085   -5.8529   -2.4684 C.ar      1 <0>         0.2707
     11 C9         -1.0757   -7.0659   -2.9905 C.ar      1 <0>        -0.2787
     12 C10        -1.1559   -8.1575   -2.1472 C.ar      1 <0>         0.2139
     13 N3         -0.7919   -8.0266   -0.8803 N.ar      1 <0>        -0.5378
     14 C11        -0.3532   -6.8673   -0.4118 C.ar      1 <0>         0.5775
     15 N4         -0.2550   -5.7971   -1.1841 N.ar      1 <0>        -0.5440
     16 N5          0.0173   -6.7746    0.9204 N.pl3     1 <0>        -0.6301
     17 C12         0.0385   -7.9155    1.7182 C.ar      1 <0>         0.1937
     18 C13        -0.2955   -7.8265    3.0665 C.ar      1 <0>        -0.1519
     19 C14        -0.2751   -8.9523    3.8578 C.ar      1 <0>        -0.0985
     20 C15         0.0812  -10.1862    3.3061 C.ar      1 <0>        -0.1567
     21 C16         0.4157  -10.2723    1.9516 C.ar      1 <0>        -0.0297
     22 C17         0.3883   -9.1437    1.1644 C.ar      1 <0>        -0.1210
     23 C18         0.1047  -11.3951    4.1517 C.2       1 <0>         0.5866
     24 O1          0.2777  -12.4873    3.6462 O.2       1 <0>        -0.5143
     25 N6         -0.0656  -11.2886    5.4844 N.am      1 <0>        -0.6201
     26 C19        -0.4070  -10.0556    6.2088 C.3       1 <0>         0.0890
     27 C20        -0.5246  -10.4202    7.7038 C.3       1 <0>        -0.1515
     28 C21        -0.7992  -11.9468    7.6686 C.3       1 <0>         0.0095
     29 H1         -1.8558  -12.1498    7.4941 H         1 <0>         0.1593
     30 C22         0.0533  -12.3905    6.4565 C.3       1 <0>         0.0980
     31 N7         -0.3391  -12.5932    8.9049 N.4       1 <0>        -0.4694
     32 C23        -0.7216  -14.0114    8.8877 C.3       1 <0>        -0.0901
     33 C24        -1.7041  -14.4912    9.9579 C.3       1 <0>        -0.1516
     34 C25        -0.2293  -14.8900   10.0395 C.3       1 <0>        -0.1510
     35 H2         -1.9940   -2.4360   -6.4500 H         1 <0>         0.1268
     36 H3         -0.3268   -1.8212   -6.5535 H         1 <0>         0.1160
     37 H4         -0.7138   -3.4502   -7.1576 H         1 <0>         0.1405
     38 H5          0.4810   -3.2016   -2.0370 H         1 <0>         0.2324
     39 H6         -1.0398   -6.5003   -5.3541 H         1 <0>         0.1328
     40 H7         -3.5675   -4.8498   -4.9073 H         1 <0>         0.0779
     41 H8         -3.5362   -6.5193   -5.5239 H         1 <0>         0.1071
     42 H9         -2.9724   -6.1698   -3.8721 H         1 <0>         0.0788
     43 H10        -0.6614   -5.0249   -7.2832 H         1 <0>         0.0857
     44 H11        -2.2182   -5.8676   -7.4685 H         1 <0>         0.1087
     45 H12        -2.1840   -4.1649   -6.9509 H         1 <0>         0.0941
     46 H13        -1.3666   -7.1459   -4.0275 H         1 <0>         0.1603
     47 H14        -1.5121   -9.1076   -2.5171 H         1 <0>         0.1877
     48 H15         0.2619   -5.9148    1.2970 H         1 <0>         0.4305
     49 H16        -0.5707   -6.8728    3.4922 H         1 <0>         0.1363
     50 H17        -0.5337   -8.8824    4.9041 H         1 <0>         0.1602
     51 H18         0.6915  -11.2242    1.5223 H         1 <0>         0.1428
     52 H19         0.6427   -9.2103    0.1169 H         1 <0>         0.1426
     53 H20         0.3791   -9.3137    6.0689 H         1 <0>         0.1017
     54 H21        -1.3578   -9.6642    5.8468 H         1 <0>         0.0989
     55 H22         0.4079  -10.2080    8.2269 H         1 <0>         0.1040
     56 H23        -1.3568   -9.8892    8.1659 H         1 <0>         0.1180
     57 H24        -0.3406  -13.3143    6.0329 H         1 <0>         0.1086
     58 H25         1.0933  -12.5224    6.7551 H         1 <0>         0.0897
     59 H26         0.6648  -12.5164    8.9710 H         1 <0>         0.4290
     60 H27        -0.7900  -14.4679    7.9002 H         1 <0>         0.1778
     61 H28        -2.0667  -13.7545   10.6747 H         1 <0>         0.1225
     62 H29        -2.4194  -15.2634    9.6746 H         1 <0>         0.1349
     63 H30         0.0258  -15.9245    9.8099 H         1 <0>         0.1359
     64 H31         0.3784  -14.4156   10.8101 H         1 <0>         0.1227
     65 H32        -0.7641  -12.1398    9.6998 H         1 <0>         0.4313
     66 H33         0.2498   -1.7286   -4.0844 H         1 <0>         0.4671
@<TRIPOS>BOND
     1    1    2 1
     2    1   35 1
     3    1   36 1
     4    1   37 1
     5    2    6 1
     6    2    3 2
     7    3    4 1
     8    3   66 1
     9    4    5 2
    10    4   38 1
    11    5    6 1
    12    5   10 1
    13    6    7 1
    14    7    8 1
    15    7    9 1
    16    7   39 1
    17    8   40 1
    18    8   41 1
    19    8   42 1
    20    9   43 1
    21    9   44 1
    22    9   45 1
    23   10   15 ar
    24   10   11 ar
    25   11   12 ar
    26   11   46 1
    27   12   13 ar
    28   12   47 1
    29   13   14 ar
    30   14   15 ar
    31   14   16 1
    32   16   17 1
    33   16   48 1
    34   17   22 ar
    35   17   18 ar
    36   18   19 ar
    37   18   49 1
    38   19   20 ar
    39   19   50 1
    40   20   21 ar
    41   20   23 1
    42   21   22 ar
    43   21   51 1
    44   22   52 1
    45   23   24 2
    46   23   25 am
    47   25   30 1
    48   25   26 1
    49   26   27 1
    50   26   53 1
    51   26   54 1
    52   27   28 1
    53   27   55 1
    54   27   56 1
    55   28   29 1
    56   28   30 1
    57   28   31 1
    58   30   57 1
    59   30   58 1
    60   31   32 1
    61   31   59 1
    62   31   65 1
    63   32   34 1
    64   32   33 1
    65   32   60 1
    66   33   34 1
    67   33   61 1
    68   33   62 1
    69   34   63 1
    70   34   64 1
@<TRIPOS>MOLECULE
CHEMBL460086
   65    69     0     0     0
SMALL
USER_CHARGES

@<TRIPOS>ATOM
      1 C1         -0.9399   -2.7078   -6.3922 C.3       1 <0>        -0.0978
      2 C2         -0.6433   -3.2829   -5.0312 C.2       1 <0>         0.2455
      3 N1         -0.0606   -2.6469   -4.0496 N.2       1 <0>        -0.4947
      4 C3          0.0425   -3.4555   -2.9906 C.2       1 <0>         0.0637
      5 C4         -0.5033   -4.6572   -3.3280 C.2       1 <0>        -0.0278
      6 N2         -0.9418   -4.5348   -4.6286 N.pl3     1 <0>        -0.4383
      7 C5         -1.6045   -5.5707   -5.4249 C.3       1 <0>         0.1177
      8 C6         -3.0220   -5.7934   -4.8939 C.3       1 <0>        -0.1759
      9 C7         -1.6717   -5.1249   -6.8870 C.3       1 <0>        -0.1842
     10 C8         -0.6084   -5.8529   -2.4684 C.ar      1 <0>         0.3120
     11 C9         -1.0756   -7.0659   -2.9905 C.ar      1 <0>        -0.2945
     12 C10        -1.1558   -8.1575   -2.1473 C.ar      1 <0>         0.1971
     13 N3         -0.7918   -8.0266   -0.8804 N.ar      1 <0>        -0.5615
     14 C11        -0.3532   -6.8673   -0.4119 C.ar      1 <0>         0.5652
     15 N4         -0.2549   -5.7971   -1.1842 N.ar      1 <0>        -0.5497
     16 N5          0.0174   -6.7746    0.9203 N.pl3     1 <0>        -0.6372
     17 C12         0.0386   -7.9156    1.7181 C.ar      1 <0>         0.2127
     18 C13        -0.2955   -7.8265    3.0664 C.ar      1 <0>        -0.1608
     19 C14        -0.2750   -8.9524    3.8578 C.ar      1 <0>        -0.0976
     20 C15         0.0813  -10.1863    3.3060 C.ar      1 <0>        -0.1706
     21 C16         0.4158  -10.2724    1.9515 C.ar      1 <0>        -0.0287
     22 C17         0.3884   -9.1437    1.1644 C.ar      1 <0>        -0.1243
     23 C18         0.1048  -11.3951    4.1516 C.2       1 <0>         0.5896
     24 O1          0.2777  -12.4874    3.6461 O.2       1 <0>        -0.5189
     25 N6         -0.0655  -11.2887    5.4843 N.am      1 <0>        -0.6214
     26 C19        -0.4070  -10.0557    6.2087 C.3       1 <0>         0.0895
     27 C20        -0.5245  -10.4203    7.7037 C.3       1 <0>        -0.1510
     28 C21        -0.7991  -11.9470    7.6685 C.3       1 <0>         0.0087
     29 H1         -1.8558  -12.1499    7.4940 H         1 <0>         0.1590
     30 C22         0.0534  -12.3906    6.4564 C.3       1 <0>         0.0988
     31 N7         -0.3390  -12.5933    8.9048 N.4       1 <0>        -0.4692
     32 C23        -0.7215  -14.0116    8.8875 C.3       1 <0>        -0.0884
     33 C24        -1.7040  -14.4913    9.9577 C.3       1 <0>        -0.1521
     34 C25        -0.2292  -14.8901   10.0393 C.3       1 <0>        -0.1519
     35 H2         -1.9939   -2.4360   -6.4500 H         1 <0>         0.0858
     36 H3         -0.3268   -1.8211   -6.5535 H         1 <0>         0.0924
     37 H4         -0.7137   -3.4501   -7.1576 H         1 <0>         0.1010
     38 H5          0.4811   -3.2016   -2.0369 H         1 <0>         0.1810
     39 H6         -1.0397   -6.5003   -5.3541 H         1 <0>         0.1023
     40 H7         -3.5361   -6.5193   -5.5239 H         1 <0>         0.0844
     41 H8         -2.9722   -6.1698   -3.8722 H         1 <0>         0.0697
     42 H9         -3.5674   -4.8498   -4.9074 H         1 <0>         0.0690
     43 H10        -0.6612   -5.0248   -7.2832 H         1 <0>         0.0763
     44 H11        -2.2180   -5.8675   -7.4685 H         1 <0>         0.0843
     45 H12        -2.1838   -4.1648   -6.9510 H         1 <0>         0.0892
     46 H13        -1.3665   -7.1458   -4.0275 H         1 <0>         0.1564
     47 H14        -1.5120   -9.1076   -2.5172 H         1 <0>         0.1755
     48 H15         0.2619   -5.9148    1.2970 H         1 <0>         0.4284
     49 H16        -0.5707   -6.8729    3.4921 H         1 <0>         0.1345
     50 H17        -0.5336   -8.8825    4.9040 H         1 <0>         0.1560
     51 H18         0.6915  -11.2243    1.5222 H         1 <0>         0.1392
     52 H19         0.6428   -9.2103    0.1169 H         1 <0>         0.1445
     53 H20         0.3792   -9.3138    6.0688 H         1 <0>         0.1023
     54 H21        -1.3577   -9.6643    5.8468 H         1 <0>         0.0992
     55 H22         0.4079  -10.2081    8.2268 H         1 <0>         0.1029
     56 H23        -1.3567   -9.8893    8.1659 H         1 <0>         0.1169
     57 H24        -0.3405  -13.3144    6.0328 H         1 <0>         0.1071
     58 H25         1.0934  -12.5225    6.7550 H         1 <0>         0.0878
     59 H26         0.6649  -12.5165    8.9709 H         1 <0>         0.4288
     60 H27        -0.7899  -14.4680    7.9001 H         1 <0>         0.1780
     61 H28        -2.0666  -13.7546   10.6746 H         1 <0>         0.1220
     62 H29        -2.4193  -15.2635    9.6744 H         1 <0>         0.1343
     63 H30         0.0259  -15.9247    9.8097 H         1 <0>         0.1352
     64 H31         0.3785  -14.4158   10.8099 H         1 <0>         0.1221
     65 H32        -0.7640  -12.1400    9.6997 H         1 <0>         0.4305
@<TRIPOS>BOND
     1    1    2 1
     2    1   35 1
     3    1   36 1
     4    1   37 1
     5    2    6 1
     6    2    3 2
     7    3    4 1
     8    4    5 2
     9    4   38 1
    10    5    6 1
    11    5   10 1
    12    6    7 1
    13    7    8 1
    14    7    9 1
    15    7   39 1
    16    8   40 1
    17    8   41 1
    18    8   42 1
    19    9   43 1
    20    9   44 1
    21    9   45 1
    22   10   15 ar
    23   10   11 ar
    24   11   12 ar
    25   11   46 1
    26   12   13 ar
    27   12   47 1
    28   13   14 ar
    29   14   15 ar
    30   14   16 1
    31   16   17 1
    32   16   48 1
    33   17   22 ar
    34   17   18 ar
    35   18   19 ar
    36   18   49 1
    37   19   20 ar
    38   19   50 1
    39   20   21 ar
    40   20   23 1
    41   21   22 ar
    42   21   51 1
    43   22   52 1
    44   23   24 2
    45   23   25 am
    46   25   30 1
    47   25   26 1
    48   26   27 1
    49   26   53 1
    50   26   54 1
    51   27   28 1
    52   27   55 1
    53   27   56 1
    54   28   29 1
    55   28   30 1
    56   28   31 1
    57   30   57 1
    58   30   58 1
    59   31   32 1
    60   31   59 1
    61   31   65 1
    62   32   34 1
    63   32   33 1
    64   32   60 1
    65   33   34 1
    66   33   61 1
    67   33   62 1
    68   34   63 1
    69   34   64 1
@<TRIPOS>MOLECULE
CHEMBL109981
   63    66     0     0     0
SMALL
USER_CHARGES

@<TRIPOS>ATOM
      1 C1         -0.0187    1.5258    0.0104 C.3       1 <0>        -0.1866
      2 C2          0.0021   -0.0041    0.0020 C.3       1 <0>         0.1348
      3 C3          0.7421   -0.5109    1.2415 C.3       1 <0>        -0.1862
      4 C4         -1.4333   -0.5336    0.0129 C.3       1 <0>        -0.1411
      5 O1          0.6709   -0.4649   -1.1737 O.3       1 <0>        -0.3590
      6 C5          1.9522   -0.0848   -1.3367 C.2       1 <0>         0.6505
      7 O2          2.4879    0.6189   -0.5034 O.2       1 <0>        -0.5634
      8 N1          2.6407   -0.4850   -2.4240 N.am      1 <0>        -0.7117
      9 C6          4.0349   -0.0714   -2.6014 C.3       1 <0>         0.1419
     10 C7          4.5786   -0.6570   -3.9061 C.3       1 <0>        -0.1492
     11 C8          6.0346   -0.2251   -4.0913 C.3       1 <0>         0.1144
     12 N2          6.5552   -0.7858   -5.3406 N.pl3     1 <0>        -0.4594
     13 C9          7.2503   -1.9501   -5.4369 C.2       1 <0>         0.1124
     14 C10         7.5854   -2.1787   -6.7417 C.2       1 <0>        -0.1319
     15 C11         7.0435   -1.0473   -7.5135 C.ar      1 <0>        -0.1198
     16 C12         6.4036   -0.2101   -6.5826 C.ar      1 <0>         0.2890
     17 N3          5.8103    0.9018   -6.9958 N.ar      1 <0>        -0.4911
     18 C13         5.7985    1.2489   -8.2657 C.ar      1 <0>         0.1380
     19 C14         6.4059    0.4686   -9.2359 C.ar      1 <0>        -0.1919
     20 C15         7.0484   -0.6991   -8.8626 C.ar      1 <0>        -0.0298
     21 C16         8.3372   -3.3258   -7.2702 C.2       1 <0>        -0.0252
     22 C17         7.8678   -4.6198   -7.4525 C.2       1 <0>        -0.0544
     23 C18         8.9970   -5.3926   -8.0040 C.2       1 <0>         0.5614
     24 O3          8.9716   -6.5716   -8.2972 O.2       1 <0>        -0.4462
     25 N4         10.0579   -4.5778   -8.1295 N.am      1 <0>        -0.6894
     26 C19         9.7486   -3.3348   -7.7226 C.2       1 <0>         0.5574
     27 O4         10.4997   -2.3807   -7.7229 O.2       1 <0>        -0.4450
     28 C20         6.5122   -5.1213   -7.1539 C.ar      1 <0>        -0.0734
     29 C21         5.4443   -4.8044   -7.9972 C.ar      1 <0>        -0.0468
     30 C22         4.1806   -5.2761   -7.7125 C.ar      1 <0>        -0.1553
     31 C23         3.9644   -6.0628   -6.5933 C.ar      1 <0>        -0.0645
     32 C24         5.0124   -6.3834   -5.7510 C.ar      1 <0>        -0.2088
     33 C25         6.2898   -5.9233   -6.0253 C.ar      1 <0>         0.1563
     34 O5          7.3213   -6.2428   -5.2018 O.3       1 <0>        -0.3121
     35 C26         7.0190   -7.0635   -4.0718 C.3       1 <0>         0.0255
     36 H1          1.0039    1.9031    0.0027 H         1 <0>         0.0873
     37 H2         -0.5459    1.8868   -0.8726 H         1 <0>         0.0596
     38 H3         -0.5289    1.8773    0.9072 H         1 <0>         0.0710
     39 H4          0.2319   -0.1594    2.1383 H         1 <0>         0.0711
     40 H5          0.7568   -1.6008    1.2356 H         1 <0>         0.0590
     41 H6          1.7647   -0.1336    1.2338 H         1 <0>         0.0872
     42 H7         -1.9605   -0.1726   -0.8702 H         1 <0>         0.0669
     43 H8         -1.4185   -1.6235    0.0069 H         1 <0>         0.0666
     44 H9         -1.9435   -0.1821    0.9097 H         1 <0>         0.0816
     45 H10         2.2131   -1.0467   -3.0892 H         1 <0>         0.4071
     46 H11         4.0889    1.0165   -2.6411 H         1 <0>         0.0769
     47 H12         4.6309   -0.4344   -1.7640 H         1 <0>         0.0751
     48 H13         4.5246   -1.7449   -3.8664 H         1 <0>         0.0788
     49 H14         3.9826   -0.2940   -4.7434 H         1 <0>         0.0835
     50 H15         6.0886    0.8628   -4.1311 H         1 <0>         0.1012
     51 H16         6.6306   -0.5881   -3.2540 H         1 <0>         0.0989
     52 H17         7.5000   -2.5959   -4.6081 H         1 <0>         0.1816
     53 H18         5.3034    2.1631   -8.5580 H         1 <0>         0.1627
     54 H19         6.3838    0.7716  -10.2722 H         1 <0>         0.1399
     55 H20         7.5294   -1.3281   -9.5971 H         1 <0>         0.1313
     56 H21        10.9249   -4.8479   -8.4706 H         1 <0>         0.4300
     57 H22         5.6085   -4.1907   -8.8706 H         1 <0>         0.1316
     58 H23         3.3555   -5.0308   -8.3648 H         1 <0>         0.1299
     59 H24         2.9711   -6.4276   -6.3772 H         1 <0>         0.1288
     60 H25         4.8359   -6.9971   -4.8800 H         1 <0>         0.1333
     61 H26         6.2866   -6.5588   -3.4416 H         1 <0>         0.0578
     62 H27         6.6107   -8.0150   -4.4126 H         1 <0>         0.0591
     63 H28         7.9289   -7.2428   -3.4991 H         1 <0>         0.1027
@<TRIPOS>BOND
     1    1    2 1
     2    1   36 1
     3    1   37 1
     4    1   38 1
     5    2    3 1
     6    2    4 1
     7    2    5 1
     8    3   39 1
     9    3   40 1
    10    3   41 1
    11    4   42 1
    12    4   43 1
    13    4   44 1
    14    5    6 1
    15    6    7 2
    16    6    8 am
    17    8    9 1
    18    8   45 1
    19    9   10 1
    20    9   46 1
    21    9   47 1
    22   10   11 1
    23   10   48 1
    24   10   49 1
    25   11   12 1
    26   11   50 1
    27   11   51 1
    28   12   16 1
    29   12   13 1
    30   13   14 2
    31   13   52 1
    32   14   15 1
    33   14   21 1
    34   15   20 ar
    35   15   16 ar
    36   16   17 ar
    37   17   18 ar
    38   18   19 ar
    39   18   53 1
    40   19   20 ar
    41   19   54 1
    42   20   55 1
    43   21   26 1
    44   21   22 2
    45   22   23 1
    46   22   28 1
    47   23   24 2
    48   23   25 am
    49   25   26 am
    50   25   56 1
    51   26   27 2
    52   28   33 ar
    53   28   29 ar
    54   29   30 ar
    55   29   57 1
    56   30   31 ar
    57   30   58 1
    58   31   32 ar
    59   31   59 1
    60   32   33 ar
    61   32   60 1
    62   33   34 1
    63   34   35 1
    64   35   61 1
    65   35   62 1
    66   35   63 1
@<TRIPOS>MOLECULE
CHEMBL557581
   52    58     0     0     0
SMALL
USER_CHARGES

@<TRIPOS>ATOM
      1 C1         -0.0167    1.3801    0.0096 C.ar      1 <0>        -0.1467
      2 C2          1.1494    2.1258    0.0025 C.ar      1 <0>        -0.0663
      3 C3          2.4016    1.5336   -0.0089 C.ar      1 <0>        -0.1438
      4 C4          2.4495    0.1402   -0.0224 C.ar      1 <0>         0.1445
      5 C5          1.2557   -0.6179   -0.0217 C.ar      1 <0>        -0.1162
      6 C6          0.0021   -0.0041    0.0020 C.ar      1 <0>        -0.0379
      7 C7          1.6499   -2.0238   -0.0751 C.ar      1 <0>        -0.0074
      8 C8          0.9426   -3.2323   -0.0892 C.ar      1 <0>        -0.0856
      9 C9          1.6320   -4.4547   -0.1904 C.ar      1 <0>        -0.1187
     10 C10         3.0306   -4.4582   -0.2634 C.ar      1 <0>         0.0051
     11 C11         4.0518   -5.5093   -0.3065 C.ar      1 <0>        -0.1076
     12 C12         4.0187   -6.8867   -0.5138 C.ar      1 <0>        -0.0152
     13 C13         5.1447   -7.6550   -0.3122 C.ar      1 <0>        -0.1457
     14 C14         6.3062   -7.0354    0.1431 C.ar      1 <0>        -0.0539
     15 C15         6.3586   -5.6851    0.2556 C.ar      1 <0>        -0.1767
     16 C16         5.2826   -4.8469   -0.1413 C.ar      1 <0>         0.1882
     17 N1          5.0994   -3.5322   -0.4238 N.pl3     1 <0>        -0.5070
     18 C17         3.7346   -3.2498   -0.2315 C.ar      1 <0>         0.1021
     19 C18         3.0579   -2.0326   -0.1164 C.ar      1 <0>         0.1603
     20 N2          3.5100   -0.7261   -0.0397 N.pl3     1 <0>        -0.6027
     21 H1          4.4429   -0.4625   -0.0038 H         1 <0>         0.4195
     22 C19         5.8213   -2.5381   -1.2079 C.3       1 <0>         0.1215
     23 C20         7.0340   -3.0069   -1.9386 C.3       1 <0>        -0.1501
     24 C21         8.3348   -3.1125   -1.1204 C.3       1 <0>        -0.1447
     25 C22         8.6810   -4.6417   -1.2541 C.3       1 <0>        -0.0114
     26 N3          8.7570   -5.1593    0.1204 N.4       1 <0>        -0.5172
     27 C23         7.5263   -4.9577    0.9200 C.3       1 <0>         0.0511
     28 C24         0.5982   -5.5054   -0.1748 C.2       1 <0>         0.5841
     29 O1          0.8003   -6.7009   -0.2552 O.2       1 <0>        -0.4575
     30 N4         -0.6069   -4.9186   -0.0562 N.am      1 <0>        -0.6786
     31 C25        -0.4892   -3.5791   -0.0104 C.2       1 <0>         0.5791
     32 O2         -1.4073   -2.7884    0.0811 O.2       1 <0>        -0.4462
     33 H2         -0.9674    1.8923    0.0261 H         1 <0>         0.1321
     34 H3          1.0808    3.2036    0.0056 H         1 <0>         0.1334
     35 H4          3.3040    2.1270   -0.0072 H         1 <0>         0.1363
     36 H5         -0.9102   -0.5819    0.0142 H         1 <0>         0.1513
     37 H6          3.1012   -7.3570   -0.8353 H         1 <0>         0.1469
     38 H7          5.1269   -8.7178   -0.5034 H         1 <0>         0.1453
     39 H8          7.1668   -7.6319    0.4074 H         1 <0>         0.1369
     40 H9          5.1295   -2.1190   -1.9386 H         1 <0>         0.0919
     41 H10         6.1231   -1.7345   -0.5363 H         1 <0>         0.0735
     42 H11         6.8172   -3.9903   -2.3558 H         1 <0>         0.0847
     43 H12         7.2124   -2.3237   -2.7690 H         1 <0>         0.1039
     44 H13         9.1205   -2.4957   -1.5567 H         1 <0>         0.1140
     45 H14         8.1627   -2.8418   -0.0786 H         1 <0>         0.0920
     46 H15         7.8960   -5.1576   -1.8069 H         1 <0>         0.1358
     47 H16         9.6403   -4.7672   -1.7562 H         1 <0>         0.1401
     48 H17         8.9537   -6.1481    0.0796 H         1 <0>         0.4250
     49 H18         7.3032   -3.8925    0.9806 H         1 <0>         0.1290
     50 H19         7.6768   -5.3543    1.9241 H         1 <0>         0.1470
     51 H20        -1.4490   -5.3979   -0.0098 H         1 <0>         0.4359
     52 H21         9.5234   -4.7032    0.5922 H         1 <0>         0.4264
@<TRIPOS>BOND
     1    1    6 ar
     2    1    2 ar
     3    1   33 1
     4    2    3 ar
     5    2   34 1
     6    3    4 ar
     7    3   35 1
     8    4   20 1
     9    4    5 ar
    10    5    6 ar
    11    5    7 1
    12    6   36 1
    13    7   19 ar
    14    7    8 ar
    15    8   31 1
    16    8    9 ar
    17    9   10 ar
    18    9   28 1
    19   10   18 ar
    20   10   11 1
    21   11   16 ar
    22   11   12 ar
    23   12   13 ar
    24   12   37 1
    25   13   14 ar
    26   13   38 1
    27   14   15 ar
    28   14   39 1
    29   15   27 1
    30   15   16 ar
    31   16   17 1
    32   17   18 1
    33   17   22 1
    34   18   19 ar
    35   19   20 1
    36   20   21 1
    37   22   23 1
    38   22   40 1
    39   22   41 1
    40   23   24 1
    41   23   42 1
    42   23   43 1
    43   24   25 1
    44   24   44 1
    45   24   45 1
    46   25   26 1
    47   25   46 1
    48   25   47 1
    49   26   27 1
    50   26   48 1
    51   26   52 1
    52   27   49 1
    53   27   50 1
    54   28   29 2
    55   28   30 am
    56   30   31 am
    57   30   51 1
    58   31   32 2
@<TRIPOS>MOLECULE
CHEMBL306856
   69    75     0     0     0
SMALL
USER_CHARGES

@<TRIPOS>ATOM
      1 C1         -0.0178    1.4613    0.0101 C.3       1 <0>         0.0588
      2 N1          0.0021   -0.0041    0.0020 N.pl3     1 <0>        -0.4429
      3 C2         -0.0218   -0.7478   -1.1468 C.2       1 <0>         0.0486
      4 C3         -0.1157   -2.0491   -0.8379 C.2       1 <0>        -0.1857
      5 C4         -0.1502   -2.1329    0.6212 C.ar      1 <0>        -0.1206
      6 C5          0.0236   -0.8228    1.0987 C.ar      1 <0>         0.1038
      7 C6          0.2017   -0.6463    2.4844 C.ar      1 <0>         0.0553
      8 C7         -0.2656   -1.6699    3.3593 C.ar      1 <0>        -0.0148
      9 C8         -0.4340   -2.9690    2.8515 C.ar      1 <0>        -0.1671
     10 C9         -0.3463   -3.1990    1.5163 C.ar      1 <0>        -0.0338
     11 C10        -0.5440   -1.3620    4.7084 C.ar      1 <0>         0.1729
     12 C11        -0.0298   -0.1628    5.2342 C.ar      1 <0>        -0.0475
     13 C12        -0.4096   -0.1228    6.6566 C.ar      1 <0>        -0.1308
     14 C13        -0.1752    0.7932    7.6807 C.ar      1 <0>        -0.0081
     15 C14        -0.6634    0.5387    8.9433 C.ar      1 <0>        -0.2242
     16 C15        -1.3859   -0.6247    9.1954 C.ar      1 <0>         0.1730
     17 C16        -1.6317   -1.5332    8.1787 C.ar      1 <0>        -0.1835
     18 C17        -1.1491   -1.2866    6.8993 C.ar      1 <0>         0.1687
     19 N2         -1.2496   -1.9881    5.7073 N.pl3     1 <0>        -0.4839
     20 C18        -2.0398   -3.2156    5.5713 C.3       1 <0>         0.1143
     21 C19        -1.1507   -4.4284    5.8538 C.3       1 <0>        -0.1822
     22 C20        -1.9753   -5.7093    5.7120 C.3       1 <0>        -0.0074
     23 N3         -1.1217   -6.8737    5.9832 N.4       1 <0>        -0.3848
     24 C21        -0.0747   -6.9603    4.9581 C.3       1 <0>        -0.0098
     25 C22         0.8657   -8.1235    5.2811 C.3       1 <0>        -0.1433
     26 C23         0.0646   -9.4284    5.3064 C.3       1 <0>         0.0964
     27 C24        -1.0705   -9.2994    6.3263 C.3       1 <0>        -0.1842
     28 C25        -1.9391   -8.0927    5.9645 C.3       1 <0>        -0.0023
     29 O1          0.9224  -10.5085    5.6802 O.3       1 <0>        -0.5528
     30 O2         -1.8409   -0.8694   10.4508 O.3       1 <0>        -0.3140
     31 C26        -1.5406    0.1057   11.4513 C.3       1 <0>         0.0241
     32 C27         0.6913    0.7267    4.4236 C.ar      1 <0>        -0.0766
     33 C28         0.8613    0.4580    3.0563 C.ar      1 <0>        -0.1585
     34 C29         1.8402    1.4532    2.5917 C.2       1 <0>         0.5797
     35 O3          2.4288    1.4374    1.5291 O.2       1 <0>        -0.4543
     36 N4          2.0156    2.3762    3.5599 N.am      1 <0>        -0.6822
     37 C30         1.3563    2.0220    4.6756 C.2       1 <0>         0.5774
     38 O4          1.3097    2.6515    5.7141 O.2       1 <0>        -0.4527
     39 H1          1.0048    1.8386    0.0023 H         1 <0>         0.0908
     40 H2         -0.5450    1.8224   -0.8730 H         1 <0>         0.0934
     41 H3         -0.5280    1.8128    0.9069 H         1 <0>         0.0779
     42 H4          0.0227   -0.3458   -2.1469 H         1 <0>         0.1775
     43 H5         -0.1506   -2.8744   -1.5332 H         1 <0>         0.1545
     44 H6         -0.6107   -3.8094    3.5023 H         1 <0>         0.1202
     45 H7         -0.4311   -4.2062    1.1422 H         1 <0>         0.1282
     46 H8          0.3820    1.6976    7.4953 H         1 <0>         0.1482
     47 H9         -0.4778    1.2431    9.7409 H         1 <0>         0.1396
     48 H10        -2.1864   -2.4318    8.3996 H         1 <0>         0.1314
     49 H11        -2.8655   -3.1969    6.2827 H         1 <0>         0.1065
     50 H12        -2.4349   -3.2830    4.5577 H         1 <0>         0.1055
     51 H13        -0.3250   -4.4471    5.1425 H         1 <0>         0.0985
     52 H14        -0.7556   -4.3610    6.8674 H         1 <0>         0.1005
     53 H15        -2.8010   -5.6906    6.4233 H         1 <0>         0.1384
     54 H16        -2.3704   -5.7767    4.6983 H         1 <0>         0.1365
     55 H17        -0.5340   -7.1249    3.9833 H         1 <0>         0.1344
     56 H18         0.4924   -6.0297    4.9390 H         1 <0>         0.1376
     57 H19         1.6412   -8.1872    4.5178 H         1 <0>         0.1207
     58 H20         1.3257   -7.9598    6.2556 H         1 <0>         0.0964
     59 H21        -0.3534   -9.6188    4.3179 H         1 <0>         0.0739
     60 H22        -1.6788  -10.2037    6.3101 H         1 <0>         0.1157
     61 H23        -0.6506   -9.1601    7.3225 H         1 <0>         0.0972
     62 H24        -2.7484   -7.9981    6.6885 H         1 <0>         0.1354
     63 H25        -2.3586   -8.2331    4.9683 H         1 <0>         0.1322
     64 H26         0.4801  -11.3676    5.7166 H         1 <0>         0.3945
     65 H27        -0.4595    0.2079   11.5462 H         1 <0>         0.0614
     66 H28        -1.9724    1.0648   11.1651 H         1 <0>         0.0622
     67 H29        -1.9608   -0.2116   12.4057 H         1 <0>         0.1061
     68 H30         2.5465    3.1820    3.4659 H         1 <0>         0.4344
     69 H31        -0.6932   -6.7712    6.8909 H         1 <0>         0.4253
@<TRIPOS>BOND
     1    1    2 1
     2    1   39 1
     3    1   40 1
     4    1   41 1
     5    2    6 1
     6    2    3 1
     7    3    4 2
     8    3   42 1
     9    4    5 1
    10    4   43 1
    11    5   10 ar
    12    5    6 ar
    13    6    7 ar
    14    7   33 ar
    15    7    8 ar
    16    8    9 ar
    17    8   11 ar
    18    9   10 ar
    19    9   44 1
    20   10   45 1
    21   11   19 1
    22   11   12 ar
    23   12   13 1
    24   12   32 ar
    25   13   18 ar
    26   13   14 ar
    27   14   15 ar
    28   14   46 1
    29   15   16 ar
    30   15   47 1
    31   16   17 ar
    32   16   30 1
    33   17   18 ar
    34   17   48 1
    35   18   19 1
    36   19   20 1
    37   20   21 1
    38   20   49 1
    39   20   50 1
    40   21   22 1
    41   21   51 1
    42   21   52 1
    43   22   23 1
    44   22   53 1
    45   22   54 1
    46   23   28 1
    47   23   24 1
    48   23   69 1
    49   24   25 1
    50   24   55 1
    51   24   56 1
    52   25   26 1
    53   25   57 1
    54   25   58 1
    55   26   27 1
    56   26   29 1
    57   26   59 1
    58   27   28 1
    59   27   60 1
    60   27   61 1
    61   28   62 1
    62   28   63 1
    63   29   64 1
    64   30   31 1
    65   31   65 1
    66   31   66 1
    67   31   67 1
    68   32   37 1
    69   32   33 ar
    70   33   34 1
    71   34   35 2
    72   34   36 am
    73   36   37 am
    74   36   68 1
    75   37   38 2
@<TRIPOS>MOLECULE
CHEMBL179599
   39    43     0     0     0
SMALL
USER_CHARGES

@<TRIPOS>ATOM
      1 C1          0.6751    0.2476    1.2005 C.ar      1 <0>        -0.0599
      2 C2          1.8583    0.9537    1.1886 C.ar      1 <0>        -0.1164
      3 C3          2.3811    1.4169   -0.0135 C.ar      1 <0>         0.1378
      4 C4          1.7126    1.1690   -1.2072 C.ar      1 <0>        -0.0921
      5 C5          0.5293    0.4632   -1.2020 C.ar      1 <0>        -0.0949
      6 C6          0.0014   -0.0029    0.0035 C.ar      1 <0>         0.0018
      7 C7         -1.2680   -0.7605    0.0126 C.2       1 <0>         0.2339
      8 N1         -1.8676   -1.2454    1.0776 N.2       1 <0>        -0.4665
      9 C8         -2.9911   -1.8699    0.7056 C.2       1 <0>        -0.0224
     10 C9         -3.1056   -1.7772   -0.6348 C.2       1 <0>        -0.0367
     11 N2         -2.0209   -1.0711   -1.0821 N.pl3     1 <0>        -0.5632
     12 N3          3.5816    2.1339   -0.0221 N.pl3     1 <0>        -0.2532
     13 C10         4.6976    1.7804    0.6869 C.ar      1 <0>         0.1388
     14 C11         5.6675    2.7533    0.4027 C.ar      1 <0>        -0.1370
     15 C12         6.9392    2.6788    0.9802 C.ar      1 <0>         0.0041
     16 C13         7.2514    1.6596    1.8264 C.ar      1 <0>        -0.1474
     17 C14         6.3063    0.6738    2.1299 C.ar      1 <0>         0.1630
     18 C15         5.0223    0.7261    1.5624 C.ar      1 <0>        -0.1773
     19 C16         4.3077   -0.3899    2.0531 C.2       1 <0>         0.0728
     20 N4          5.0858   -1.0655    2.8496 N.2       1 <0>        -0.2486
     21 N5          6.3363   -0.4412    2.9269 N.pl3     1 <0>        -0.4878
     22 H1          7.0928   -0.7451    3.4525 H         1 <0>         0.4470
     23 C17         4.9977    3.6768   -0.5231 C.2       1 <0>         0.0227
     24 N6          3.7807    3.2056   -0.7003 N.2       1 <0>        -0.2211
     25 C18         5.5746    4.8867   -1.1356 C.2       1 <0>         0.6139
     26 O1          6.7213    5.2065   -0.8870 O.2       1 <0>        -0.5265
     27 N7          4.8313    5.6388   -1.9712 N.am      1 <0>        -0.8387
     28 H2          0.2716   -0.1154    2.1341 H         1 <0>         0.1534
     29 H3          2.3799    1.1478    2.1142 H         1 <0>         0.1432
     30 H4          2.1211    1.5304   -2.1393 H         1 <0>         0.1414
     31 H5          0.0103    0.2713   -2.1295 H         1 <0>         0.1318
     32 H6         -3.6874   -2.3645    1.3665 H         1 <0>         0.1764
     33 H7         -1.8240   -0.8380   -2.0028 H         1 <0>         0.4213
     34 H8         -3.9039   -2.1800   -1.2404 H         1 <0>         0.1835
     35 H9          7.6773    3.4338    0.7532 H         1 <0>         0.1515
     36 H10         8.2364    1.6112    2.2666 H         1 <0>         0.1399
     37 H11         3.2860   -0.6406    1.8088 H         1 <0>         0.1929
     38 H12         3.9167    5.3838   -2.1695 H         1 <0>         0.4084
     39 H13         5.2110    6.4352   -2.3744 H         1 <0>         0.4103
@<TRIPOS>BOND
     1    1    6 ar
     2    1    2 ar
     3    1   28 1
     4    2    3 ar
     5    2   29 1
     6    3    4 ar
     7    3   12 1
     8    4    5 ar
     9    4   30 1
    10    5    6 ar
    11    5   31 1
    12    6    7 1
    13    7   11 1
    14    7    8 2
    15    8    9 1
    16    9   10 2
    17    9   32 1
    18   10   11 1
    19   10   34 1
    20   11   33 1
    21   12   24 1
    22   12   13 1
    23   13   18 ar
    24   13   14 ar
    25   14   15 ar
    26   14   23 1
    27   15   16 ar
    28   15   35 1
    29   16   17 ar
    30   16   36 1
    31   17   21 1
    32   17   18 ar
    33   18   19 1
    34   19   20 2
    35   19   37 1
    36   20   21 1
    37   21   22 1
    38   23   24 2
    39   23   25 1
    40   25   26 2
    41   25   27 am
    42   27   38 1
    43   27   39 1
@<TRIPOS>MOLECULE
CHEMBL179599
   40    44     0     0     0
SMALL
USER_CHARGES

@<TRIPOS>ATOM
      1 C1         -0.0169    1.3919    0.0097 C.ar      1 <0>        -0.0441
      2 C2          1.1678    2.0955    0.0022 C.ar      1 <0>        -0.1065
      3 C3          2.3811    1.4168   -0.0135 C.ar      1 <0>         0.2280
      4 C4          2.4033    0.0267   -0.0217 C.ar      1 <0>        -0.1469
      5 C5          1.2220   -0.6827   -0.0137 C.ar      1 <0>        -0.0469
      6 C6          0.0021   -0.0041    0.0020 C.ar      1 <0>        -0.1052
      7 C7         -1.2672   -0.7622    0.0106 C.cat     1 <0>         0.3762
      8 N1         -2.4902   -0.2325    0.0197 N.pl3     1 <0>        -0.4897
      9 C8         -3.3848   -1.2411    0.0246 C.2       1 <0>         0.0235
     10 C9         -2.6930   -2.3995    0.0182 C.2       1 <0>         0.0224
     11 N2         -1.3808   -2.0901    0.0046 N.pl3     1 <0>        -0.4907
     12 N3          3.5816    2.1338   -0.0216 N.pl3     1 <0>        -0.3362
     13 C10         4.7370    1.7491    0.6001 C.ar      1 <0>         0.1802
     14 C11         5.6941    2.7335    0.3519 C.ar      1 <0>        -0.1399
     15 C12         7.0047    2.6289    0.8633 C.ar      1 <0>        -0.0228
     16 C13         7.4065    1.5830    1.6142 C.ar      1 <0>        -0.0974
     17 C14         6.4762    0.5031    1.9269 C.ar      1 <0>         0.1399
     18 C15         5.1028    0.5871    1.4070 C.ar      1 <0>        -0.2024
     19 C16         4.4482   -0.5428    1.8443 C.2       1 <0>         0.0794
     20 N4          5.3159   -1.2683    2.5678 N.pl3     1 <0>        -0.4320
     21 N5          6.5558   -0.6201    2.6125 N.2       1 <0>        -0.2700
     22 H1          5.1139   -2.1153    2.9951 H         1 <0>         0.4504
     23 C17         5.0295    3.7522   -0.4726 C.2       1 <0>         0.0909
     24 N6          3.7908    3.3538   -0.6716 N.2       1 <0>        -0.2310
     25 C18         5.6402    4.9911   -0.9877 C.2       1 <0>         0.6032
     26 O1          6.8027    5.2457   -0.7372 O.2       1 <0>        -0.5074
     27 N7          4.9103    5.8415   -1.7363 N.am      1 <0>        -0.8334
     28 H2         -0.9590    1.9196    0.0260 H         1 <0>         0.1440
     29 H3          1.1538    3.1754    0.0081 H         1 <0>         0.1587
     30 H4          3.3473   -0.4977   -0.0346 H         1 <0>         0.1598
     31 H5          1.2399   -1.7625   -0.0204 H         1 <0>         0.1442
     32 H6         -4.4601   -1.1401    0.0325 H         1 <0>         0.2300
     33 H7         -0.6467   -2.7240   -0.0061 H         1 <0>         0.4632
     34 H8         -3.1139   -3.3941    0.0198 H         1 <0>         0.2298
     35 H9          7.7124    3.4150    0.6452 H         1 <0>         0.1530
     36 H10         8.4202    1.5444    1.9848 H         1 <0>         0.1485
     37 H11         3.4190   -0.7996    1.6416 H         1 <0>         0.1888
     38 H12         3.9830    5.6384   -1.9361 H         1 <0>         0.4083
     39 H13         5.3121    6.6567   -2.0753 H         1 <0>         0.4161
     40 H14        -2.7002    0.7145    0.0229 H         1 <0>         0.4641
@<TRIPOS>BOND
     1    1    6 ar
     2    1    2 ar
     3    1   28 1
     4    2    3 ar
     5    2   29 1
     6    3    4 ar
     7    3   12 1
     8    4    5 ar
     9    4   30 1
    10    5    6 ar
    11    5   31 1
    12    6    7 1
    13    7   11 1
    14    7    8 2
    15    8    9 1
    16    8   40 1
    17    9   10 2
    18    9   32 1
    19   10   11 1
    20   10   34 1
    21   11   33 1
    22   12   24 1
    23   12   13 1
    24   13   18 ar
    25   13   14 ar
    26   14   15 ar
    27   14   23 1
    28   15   16 ar
    29   15   35 1
    30   16   17 ar
    31   16   36 1
    32   17   18 ar
    33   17   21 2
    34   18   19 2
    35   19   37 1
    36   19   20 1
    37   20   22 1
    38   20   21 1
    39   23   24 2
    40   23   25 1
    41   25   26 2
    42   25   27 am
    43   27   38 1
    44   27   39 1
@<TRIPOS>MOLECULE
CHEMBL179599
   40    44     0     0     0
SMALL
USER_CHARGES

@<TRIPOS>ATOM
      1 C1          0.6744    0.2472    1.1995 C.ar      1 <0>        -0.0493
      2 C2          1.8571    0.9540    1.1888 C.ar      1 <0>        -0.1269
      3 C3          2.3811    1.4168   -0.0131 C.ar      1 <0>         0.2216
      4 C4          1.7137    1.1686   -1.2073 C.ar      1 <0>        -0.1024
      5 C5          0.5304    0.4628   -1.2030 C.ar      1 <0>        -0.0490
      6 C6          0.0021   -0.0041    0.0020 C.ar      1 <0>        -0.0995
      7 C7         -1.2669   -0.7626    0.0100 C.cat     1 <0>         0.3757
      8 N1         -1.8737   -1.2533    1.0905 N.pl3     1 <0>        -0.4896
      9 C8         -3.0003   -1.8779    0.6924 C.2       1 <0>         0.0231
     10 C9         -3.0770   -1.7636   -0.6499 C.2       1 <0>         0.0228
     11 N2         -1.9995   -1.0655   -1.0614 N.pl3     1 <0>        -0.4895
     12 N3          3.5814    2.1337   -0.0207 N.pl3     1 <0>        -0.3501
     13 C10         4.7097    1.7980    0.6813 C.ar      1 <0>         0.1930
     14 C11         5.6771    2.7701    0.3982 C.ar      1 <0>        -0.1594
     15 C12         6.9507    2.6895    0.9815 C.ar      1 <0>         0.0143
     16 C13         7.2600    1.6698    1.8261 C.ar      1 <0>        -0.1523
     17 C14         6.3140    0.6844    2.1268 C.ar      1 <0>         0.1805
     18 C15         5.0317    0.7411    1.5572 C.ar      1 <0>        -0.1972
     19 C16         4.3133   -0.3740    2.0440 C.2       1 <0>         0.0683
     20 N4          5.0878   -1.0527    2.8414 N.2       1 <0>        -0.2438
     21 N5          6.3401   -0.4321    2.9217 N.pl3     1 <0>        -0.4821
     22 H1          7.0947   -0.7384    3.4486 H         1 <0>         0.4515
     23 C17         5.0488    3.7203   -0.5288 C.2       1 <0>         0.0943
     24 N6          3.8209    3.3023   -0.7504 N.2       1 <0>        -0.2187
     25 C18         5.6798    4.9190   -1.1091 C.2       1 <0>         0.6034
     26 O1          6.8300    5.1971   -0.8283 O.2       1 <0>        -0.5096
     27 N7          4.9823    5.7072   -1.9510 N.am      1 <0>        -0.8326
     28 H2          0.2701   -0.1159    2.1329 H         1 <0>         0.1451
     29 H3          2.3774    1.1489    2.1148 H         1 <0>         0.1565
     30 H4          2.1230    1.5297   -2.1392 H         1 <0>         0.1562
     31 H5          0.0120    0.2709   -2.1309 H         1 <0>         0.1434
     32 H6         -3.7121   -2.3787    1.3318 H         1 <0>         0.2298
     33 H7         -1.7922   -0.8269   -1.9785 H         1 <0>         0.4640
     34 H8         -3.8614   -2.1565   -1.2798 H         1 <0>         0.2298
     35 H9          7.6912    3.4432    0.7576 H         1 <0>         0.1568
     36 H10         8.2442    1.6201    2.2680 H         1 <0>         0.1453
     37 H11         3.2918   -0.6222    1.7961 H         1 <0>         0.1874
     38 H12         4.0649    5.4854   -2.1750 H         1 <0>         0.4088
     39 H13         5.3976    6.4962   -2.3330 H         1 <0>         0.4163
     40 H14        -1.5591   -1.1750    2.0047 H         1 <0>         0.4640
@<TRIPOS>BOND
     1    1    6 ar
     2    1    2 ar
     3    1   28 1
     4    2    3 ar
     5    2   29 1
     6    3    4 ar
     7    3   12 1
     8    4    5 ar
     9    4   30 1
    10    5    6 ar
    11    5   31 1
    12    6    7 1
    13    7   11 1
    14    7    8 2
    15    8    9 1
    16    8   40 1
    17    9   10 2
    18    9   32 1
    19   10   11 1
    20   10   34 1
    21   11   33 1
    22   12   24 1
    23   12   13 1
    24   13   18 ar
    25   13   14 ar
    26   14   15 ar
    27   14   23 1
    28   15   16 ar
    29   15   35 1
    30   16   17 ar
    31   16   36 1
    32   17   21 1
    33   17   18 ar
    34   18   19 1
    35   19   20 2
    36   19   37 1
    37   20   21 1
    38   21   22 1
    39   23   24 2
    40   23   25 1
    41   25   26 2
    42   25   27 am
    43   27   38 1
    44   27   39 1
@<TRIPOS>MOLECULE
CHEMBL179599
   39    43     0     0     0
SMALL
USER_CHARGES

@<TRIPOS>ATOM
      1 C1         -0.0169    1.3919    0.0097 C.ar      1 <0>        -0.0535
      2 C2          1.1678    2.0956    0.0022 C.ar      1 <0>        -0.1035
      3 C3          2.3811    1.4169   -0.0131 C.ar      1 <0>         0.1640
      4 C4          2.4033    0.0268   -0.0207 C.ar      1 <0>        -0.1422
      5 C5          1.2221   -0.6827   -0.0137 C.ar      1 <0>        -0.0910
      6 C6          0.0021   -0.0041    0.0020 C.ar      1 <0>        -0.0092
      7 C7         -1.2671   -0.7621    0.0106 C.2       1 <0>         0.2366
      8 N1         -2.4745   -0.2419    0.0196 N.2       1 <0>        -0.4681
      9 C8         -3.3797   -1.2273    0.0254 C.2       1 <0>        -0.0221
     10 C9         -2.7252   -2.4063    0.0198 C.2       1 <0>        -0.0383
     11 N2         -1.3859   -2.1214    0.0044 N.pl3     1 <0>        -0.5646
     12 N3          3.5817    2.1340   -0.0211 N.pl3     1 <0>        -0.3167
     13 C10         4.7370    1.7496    0.6009 C.ar      1 <0>         0.1874
     14 C11         5.6942    2.7338    0.3526 C.ar      1 <0>        -0.1554
     15 C12         7.0048    2.6292    0.8639 C.ar      1 <0>        -0.0148
     16 C13         7.4065    1.5833    1.6149 C.ar      1 <0>        -0.1113
     17 C14         6.4761    0.5038    1.9282 C.ar      1 <0>         0.1393
     18 C15         5.1028    0.5876    1.4080 C.ar      1 <0>        -0.2017
     19 C16         4.4480   -0.5420    1.8457 C.2       1 <0>         0.0869
     20 N4          5.3156   -1.2674    2.5694 N.pl3     1 <0>        -0.4382
     21 N5          6.5554   -0.6191    2.6143 N.2       1 <0>        -0.2821
     22 H1          5.1135   -2.1143    2.9970 H         1 <0>         0.4482
     23 C17         5.0298    3.7523   -0.4724 C.2       1 <0>         0.0683
     24 N6          3.7911    3.3538   -0.6716 N.2       1 <0>        -0.2276
     25 C18         5.6406    4.9909   -0.9878 C.2       1 <0>         0.6083
     26 O1          6.8030    5.2457   -0.7372 O.2       1 <0>        -0.5179
     27 N7          4.9108    5.8411   -1.7368 N.am      1 <0>        -0.8360
     28 H2         -0.9590    1.9197    0.0260 H         1 <0>         0.1508
     29 H3          1.1538    3.1755    0.0077 H         1 <0>         0.1442
     30 H4          3.3474   -0.4976   -0.0326 H         1 <0>         0.1436
     31 H5          1.2400   -1.7625   -0.0204 H         1 <0>         0.1311
     32 H6         -4.4521   -1.1001    0.0337 H         1 <0>         0.1762
     33 H7         -0.6594   -2.7640   -0.0062 H         1 <0>         0.4204
     34 H8         -3.1726   -3.3892    0.0226 H         1 <0>         0.1832
     35 H9          7.7126    3.4152    0.6458 H         1 <0>         0.1479
     36 H10         8.4203    1.5445    1.9852 H         1 <0>         0.1428
     37 H11         3.4188   -0.7988    1.6430 H         1 <0>         0.1937
     38 H12         3.9836    5.6380   -1.9367 H         1 <0>         0.4094
     39 H13         5.3127    6.6562   -2.0759 H         1 <0>         0.4121
@<TRIPOS>BOND
     1    1    6 ar
     2    1    2 ar
     3    1   28 1
     4    2    3 ar
     5    2   29 1
     6    3    4 ar
     7    3   12 1
     8    4    5 ar
     9    4   30 1
    10    5    6 ar
    11    5   31 1
    12    6    7 1
    13    7   11 1
    14    7    8 2
    15    8    9 1
    16    9   10 2
    17    9   32 1
    18   10   11 1
    19   10   34 1
    20   11   33 1
    21   12   24 1
    22   12   13 1
    23   13   18 ar
    24   13   14 ar
    25   14   15 ar
    26   14   23 1
    27   15   16 ar
    28   15   35 1
    29   16   17 ar
    30   16   36 1
    31   17   18 ar
    32   17   21 2
    33   18   19 2
    34   19   37 1
    35   19   20 1
    36   20   22 1
    37   20   21 1
    38   23   24 2
    39   23   25 1
    40   25   26 2
    41   25   27 am
    42   27   38 1
    43   27   39 1
@<TRIPOS>MOLECULE
CHEMBL179511
   41    45     0     0     0
SMALL
USER_CHARGES

@<TRIPOS>ATOM
      1 C1          0.6882    0.2257    1.1974 C.ar      1 <0>        -0.0603
      2 C2          1.8714    0.9318    1.1855 C.ar      1 <0>        -0.1222
      3 C3          2.3811    1.4169   -0.0135 C.ar      1 <0>         0.1533
      4 C4          1.6996    1.1910   -1.2040 C.ar      1 <0>        -0.0960
      5 C5          0.5159    0.4856   -1.1988 C.ar      1 <0>        -0.0938
      6 C6          0.0014   -0.0029    0.0036 C.ar      1 <0>        -0.0041
      7 C7         -1.2680   -0.7606    0.0127 C.2       1 <0>         0.2353
      8 N1         -1.8560   -1.2649    1.0750 N.2       1 <0>        -0.4686
      9 C8         -2.9837   -1.8821    0.7041 C.2       1 <0>        -0.0229
     10 C9         -3.1130   -1.7647   -0.6331 C.2       1 <0>        -0.0372
     11 N2         -2.0329   -1.0511   -1.0793 N.pl3     1 <0>        -0.5635
     12 N3          3.5820    2.1343   -0.0221 N.pl3     1 <0>        -0.2949
     13 C10         4.6989    1.8196    0.6598 C.2       1 <0>         0.1735
     14 C11         5.6700    2.7507    0.3544 C.2       1 <0>        -0.1767
     15 C12         5.0885    3.6814   -0.5145 C.2       1 <0>         0.0478
     16 N4          3.8401    3.3092   -0.7490 N.2       1 <0>        -0.2589
     17 C13         5.7560    4.8721   -1.0785 C.2       1 <0>         0.6071
     18 O1          6.9136    5.1115   -0.7948 O.2       1 <0>        -0.5214
     19 N5          5.0817    5.6932   -1.9077 N.am      1 <0>        -0.8392
     20 C14         7.0787    2.6786    0.8750 C.3       1 <0>        -0.0403
     21 C15         7.1406    2.0487    2.2669 C.3       1 <0>        -0.0410
     22 C16         6.2412    0.8447    2.3611 C.2       1 <0>         0.1139
     23 C17         5.0372    0.7340    1.6016 C.2       1 <0>        -0.1995
     24 C18         4.4379   -0.4234    1.9315 C.2       1 <0>         0.1006
     25 N6          5.2300   -1.0430    2.8381 N.pl3     1 <0>        -0.4775
     26 H1          5.0554   -1.9033    3.2507 H         1 <0>         0.4468
     27 N7          6.3477   -0.2281    3.0783 N.2       1 <0>        -0.2703
     28 H2          0.2949   -0.1544    2.1286 H         1 <0>         0.1506
     29 H3          2.4032    1.1090    2.1086 H         1 <0>         0.1404
     30 H4          2.0981    1.5692   -2.1338 H         1 <0>         0.1410
     31 H5         -0.0134    0.3110   -2.1239 H         1 <0>         0.1306
     32 H6         -3.6732   -2.3883    1.3634 H         1 <0>         0.1762
     33 H7         -1.8461   -0.8010   -1.9977 H         1 <0>         0.4214
     34 H8         -3.9178   -2.1565   -1.2373 H         1 <0>         0.1834
     35 H9          4.1580    5.5022   -2.1341 H         1 <0>         0.4084
     36 H10         5.5201    6.4752   -2.2781 H         1 <0>         0.4094
     37 H11         7.6805    2.0827    0.1889 H         1 <0>         0.0772
     38 H12         7.4913    3.6864    0.9230 H         1 <0>         0.1026
     39 H13         8.1664    1.7455    2.4765 H         1 <0>         0.0943
     40 H14         6.8290    2.7861    3.0068 H         1 <0>         0.0920
     41 H15         3.4985   -0.7906    1.5454 H         1 <0>         0.1828
@<TRIPOS>BOND
     1    1    6 ar
     2    1    2 ar
     3    1   28 1
     4    2    3 ar
     5    2   29 1
     6    3    4 ar
     7    3   12 1
     8    4    5 ar
     9    4   30 1
    10    5    6 ar
    11    5   31 1
    12    6    7 1
    13    7   11 1
    14    7    8 2
    15    8    9 1
    16    9   10 2
    17    9   32 1
    18   10   11 1
    19   10   34 1
    20   11   33 1
    21   12   16 1
    22   12   13 1
    23   13   23 1
    24   13   14 2
    25   14   15 1
    26   14   20 1
    27   15   16 2
    28   15   17 1
    29   17   18 2
    30   17   19 am
    31   19   35 1
    32   19   36 1
    33   20   21 1
    34   20   37 1
    35   20   38 1
    36   21   22 1
    37   21   39 1
    38   21   40 1
    39   22   27 2
    40   22   23 1
    41   23   24 2
    42   24   25 1
    43   24   41 1
    44   25   26 1
    45   25   27 1
@<TRIPOS>MOLECULE
CHEMBL179511
   42    46     0     0     0
SMALL
USER_CHARGES

@<TRIPOS>ATOM
      1 C1          0.6885    0.2235    1.1962 C.ar      1 <0>        -0.0511
      2 C2          1.8712    0.9304    1.1854 C.ar      1 <0>        -0.1184
      3 C3          2.3811    1.4168   -0.0131 C.ar      1 <0>         0.2147
      4 C4          1.6997    1.1923   -1.2039 C.ar      1 <0>        -0.0986
      5 C5          0.5165    0.4861   -1.1997 C.ar      1 <0>        -0.0513
      6 C6          0.0021   -0.0041    0.0020 C.ar      1 <0>        -0.0973
      7 C7         -1.2670   -0.7626    0.0100 C.cat     1 <0>         0.3753
      8 N1         -1.8610   -1.2746    1.0876 N.pl3     1 <0>        -0.4893
      9 C8         -2.9921   -1.8916    0.6906 C.2       1 <0>         0.0231
     10 C9         -3.0844   -1.7511   -0.6483 C.2       1 <0>         0.0230
     11 N2         -2.0121   -1.0444   -1.0585 N.pl3     1 <0>        -0.4892
     12 N3          3.5819    2.1341   -0.0207 N.pl3     1 <0>        -0.3156
     13 C10         4.6985    1.8188    0.6620 C.2       1 <0>         0.1819
     14 C11         5.6668    2.7545    0.3607 C.2       1 <0>        -0.1788
     15 C12         5.0876    3.6834   -0.5097 C.2       1 <0>         0.0691
     16 N4          3.8401    3.3093   -0.7472 N.2       1 <0>        -0.2582
     17 C13         5.7551    4.8752   -1.0717 C.2       1 <0>         0.6028
     18 O1          6.9114    5.1166   -0.7841 O.2       1 <0>        -0.5143
     19 N5          5.0823    5.6949   -1.9035 N.am      1 <0>        -0.8360
     20 C14         7.0708    2.6807    0.8955 C.3       1 <0>        -0.0405
     21 C15         7.1068    2.0328    2.2811 C.3       1 <0>        -0.0651
     22 C16         6.1961    0.8373    2.3495 C.2       1 <0>         0.1470
     23 C17         5.0382    0.7330    1.6016 C.2       1 <0>        -0.2190
     24 C18         4.4161   -0.4659    1.9298 C.2       1 <0>         0.0778
     25 N6          5.1674   -1.0780    2.8146 N.2       1 <0>        -0.2830
     26 H1          7.0134   -0.4994    3.6891 H         1 <0>         0.4493
     27 N7          6.2910   -0.2790    3.0804 N.pl3     1 <0>        -0.4430
     28 H2          0.2952   -0.1579    2.1269 H         1 <0>         0.1446
     29 H3          2.4025    1.1072    2.1089 H         1 <0>         0.1559
     30 H4          2.0979    1.5720   -2.1332 H         1 <0>         0.1571
     31 H5         -0.0126    0.3122   -2.1251 H         1 <0>         0.1436
     32 H6         -3.6963   -2.4051    1.3283 H         1 <0>         0.2299
     33 H7         -1.8156   -0.7877   -1.9730 H         1 <0>         0.4640
     34 H8         -3.8761   -2.1318   -1.2766 H         1 <0>         0.2299
     35 H9          4.1597    5.5023   -2.1330 H         1 <0>         0.4081
     36 H10         5.5206    6.4776   -2.2725 H         1 <0>         0.4134
     37 H11         7.6827    2.0931    0.2111 H         1 <0>         0.0831
     38 H12         7.4803    3.6886    0.9624 H         1 <0>         0.1090
     39 H13         8.1267    1.7176    2.5012 H         1 <0>         0.0982
     40 H14         6.7909    2.7640    3.0252 H         1 <0>         0.1011
     41 H15         3.4813   -0.8287    1.5286 H         1 <0>         0.1825
     42 H16        -1.5360   -1.2138    1.9995 H         1 <0>         0.4640
@<TRIPOS>BOND
     1    1    6 ar
     2    1    2 ar
     3    1   28 1
     4    2    3 ar
     5    2   29 1
     6    3    4 ar
     7    3   12 1
     8    4    5 ar
     9    4   30 1
    10    5    6 ar
    11    5   31 1
    12    6    7 1
    13    7   11 1
    14    7    8 2
    15    8    9 1
    16    8   42 1
    17    9   10 2
    18    9   32 1
    19   10   11 1
    20   10   34 1
    21   11   33 1
    22   12   16 1
    23   12   13 1
    24   13   14 2
    25   13   23 1
    26   14   15 1
    27   14   20 1
    28   15   16 2
    29   15   17 1
    30   17   18 2
    31   17   19 am
    32   19   35 1
    33   19   36 1
    34   20   21 1
    35   20   37 1
    36   20   38 1
    37   21   39 1
    38   21   40 1
    39   21   22 1
    40   22   23 2
    41   22   27 1
    42   23   24 1
    43   24   25 2
    44   24   41 1
    45   25   27 1
    46   26   27 1
@<TRIPOS>MOLECULE
CHEMBL179511
   42    46     0     0     0
SMALL
USER_CHARGES

@<TRIPOS>ATOM
      1 C1          0.6879    0.2252    1.1971 C.ar      1 <0>        -0.0520
      2 C2          1.8709    0.9317    1.1858 C.ar      1 <0>        -0.1242
      3 C3          2.3811    1.4168   -0.0131 C.ar      1 <0>         0.2164
      4 C4          1.7000    1.1910   -1.2038 C.ar      1 <0>        -0.0986
      5 C5          0.5163    0.4856   -1.1991 C.ar      1 <0>        -0.0499
      6 C6          0.0016   -0.0033    0.0031 C.ar      1 <0>        -0.0979
      7 C7         -1.2677   -0.7614    0.0116 C.cat     1 <0>         0.3742
      8 N1         -1.8620   -1.2722    1.0896 N.pl3     1 <0>        -0.4896
      9 C8         -2.9932   -1.8892    0.6930 C.2       1 <0>         0.0231
     10 C9         -3.0854   -1.7500   -0.6460 C.2       1 <0>         0.0239
     11 N2         -2.0128   -1.0440   -1.0567 N.pl3     1 <0>        -0.4888
     12 N3          3.5818    2.1341   -0.0211 N.pl3     1 <0>        -0.3178
     13 C10         4.6986    1.8193    0.6612 C.2       1 <0>         0.1712
     14 C11         5.6699    2.7502    0.3557 C.2       1 <0>        -0.1621
     15 C12         5.0887    3.6807   -0.5137 C.2       1 <0>         0.0674
     16 N4          3.8402    3.3090   -0.7480 N.2       1 <0>        -0.2559
     17 C13         5.7566    4.8714   -1.0776 C.2       1 <0>         0.6023
     18 O1          6.9141    5.1108   -0.7933 O.2       1 <0>        -0.5117
     19 N5          5.0827    5.6923   -1.9072 N.am      1 <0>        -0.8362
     20 C14         7.0785    2.6780    0.8768 C.3       1 <0>        -0.0459
     21 C15         7.1399    2.0485    2.2688 C.3       1 <0>        -0.0447
     22 C16         6.2402    0.8447    2.3631 C.2       1 <0>         0.1182
     23 C17         5.0364    0.7339    1.6033 C.2       1 <0>        -0.2010
     24 C18         4.4368   -0.4233    1.9334 C.2       1 <0>         0.0931
     25 N6          5.2286   -1.0428    2.8402 N.pl3     1 <0>        -0.4747
     26 H1          5.0537   -1.9030    3.2530 H         1 <0>         0.4479
     27 N7          6.3463   -0.2279    3.0807 N.2       1 <0>        -0.2611
     28 H2          0.2944   -0.1552    2.1281 H         1 <0>         0.1440
     29 H3          2.4021    1.1091    2.1092 H         1 <0>         0.1555
     30 H4          2.0988    1.5691   -2.1335 H         1 <0>         0.1579
     31 H5         -0.0127    0.3110   -2.1243 H         1 <0>         0.1442
     32 H6         -3.6977   -2.4019    1.3312 H         1 <0>         0.2301
     33 H7         -1.8161   -0.7883   -1.9715 H         1 <0>         0.4643
     34 H8         -3.8771   -2.1310   -1.2741 H         1 <0>         0.2303
     35 H9          4.1591    5.5013   -2.1340 H         1 <0>         0.4077
     36 H10         5.5213    6.4743   -2.2776 H         1 <0>         0.4136
     37 H11         7.6803    2.0817    0.1909 H         1 <0>         0.0831
     38 H12         7.4912    3.6856    0.9245 H         1 <0>         0.1079
     39 H13         8.1656    1.7452    2.4787 H         1 <0>         0.0997
     40 H14         6.8282    2.7861    3.0084 H         1 <0>         0.0954
     41 H15         3.4978   -0.7908    1.5465 H         1 <0>         0.1771
     42 H16        -1.5370   -1.2106    2.0015 H         1 <0>         0.4637
@<TRIPOS>BOND
     1    1    6 ar
     2    1    2 ar
     3    1   28 1
     4    2    3 ar
     5    2   29 1
     6    3    4 ar
     7    3   12 1
     8    4    5 ar
     9    4   30 1
    10    5    6 ar
    11    5   31 1
    12    6    7 1
    13    7   11 1
    14    7    8 2
    15    8    9 1
    16    8   42 1
    17    9   10 2
    18    9   32 1
    19   10   11 1
    20   10   34 1
    21   11   33 1
    22   12   16 1
    23   12   13 1
    24   13   23 1
    25   13   14 2
    26   14   15 1
    27   14   20 1
    28   15   16 2
    29   15   17 1
    30   17   18 2
    31   17   19 am
    32   19   35 1
    33   19   36 1
    34   20   21 1
    35   20   37 1
    36   20   38 1
    37   21   22 1
    38   21   39 1
    39   21   40 1
    40   22   27 2
    41   22   23 1
    42   23   24 2
    43   24   25 1
    44   24   41 1
    45   25   26 1
    46   25   27 1
@<TRIPOS>MOLECULE
CHEMBL179511
   41    45     0     0     0
SMALL
USER_CHARGES

@<TRIPOS>ATOM
      1 C1          0.6888    0.2247    1.1973 C.ar      1 <0>        -0.0592
      2 C2          1.8719    0.9309    1.1853 C.ar      1 <0>        -0.1164
      3 C3          2.3811    1.4169   -0.0135 C.ar      1 <0>         0.1512
      4 C4          1.6990    1.1920   -1.2039 C.ar      1 <0>        -0.0960
      5 C5          0.5154    0.4865   -1.1987 C.ar      1 <0>        -0.0950
      6 C6          0.0014   -0.0029    0.0036 C.ar      1 <0>        -0.0035
      7 C7         -1.2680   -0.7606    0.0127 C.2       1 <0>         0.2363
      8 N1         -1.8555   -1.2657    1.0749 N.2       1 <0>        -0.4680
      9 C8         -2.9833   -1.8829    0.7040 C.2       1 <0>        -0.0227
     10 C9         -3.1130   -1.7646   -0.6330 C.2       1 <0>        -0.0383
     11 N2         -2.0334   -1.0502   -1.0791 N.pl3     1 <0>        -0.5637
     12 N3          3.5820    2.1343   -0.0221 N.pl3     1 <0>        -0.2920
     13 C10         4.6989    1.8193    0.6600 C.2       1 <0>         0.1813
     14 C11         5.6669    2.7553    0.3585 C.2       1 <0>        -0.1911
     15 C12         5.0871    3.6842   -0.5115 C.2       1 <0>         0.0494
     16 N4          3.8398    3.3092   -0.7491 N.2       1 <0>        -0.2603
     17 C13         5.7541    4.8758   -1.0741 C.2       1 <0>         0.6075
     18 O1          6.9107    5.1172   -0.7874 O.2       1 <0>        -0.5240
     19 N5          5.0807    5.6956   -1.9053 N.am      1 <0>        -0.8388
     20 C14         7.0711    2.6819    0.8929 C.3       1 <0>        -0.0353
     21 C15         7.1079    2.0338    2.2783 C.3       1 <0>        -0.0606
     22 C16         6.1976    0.8380    2.3468 C.2       1 <0>         0.1352
     23 C17         5.0394    0.7336    1.5996 C.2       1 <0>        -0.2093
     24 C18         4.4178   -0.4656    1.9279 C.2       1 <0>         0.0850
     25 N6          5.1696   -1.0774    2.8125 N.2       1 <0>        -0.2870
     26 H1          7.0156   -0.4985    3.6862 H         1 <0>         0.4451
     27 N7          6.2932   -0.2784    3.0775 N.pl3     1 <0>        -0.4487
     28 H2          0.2959   -0.1561    2.1284 H         1 <0>         0.1511
     29 H3          2.4042    1.1073    2.1084 H         1 <0>         0.1407
     30 H4          2.0971    1.5708   -2.1336 H         1 <0>         0.1402
     31 H5         -0.0144    0.3127   -2.1237 H         1 <0>         0.1301
     32 H6         -3.6724   -2.3897    1.3632 H         1 <0>         0.1759
     33 H7         -1.8469   -0.7995   -1.9974 H         1 <0>         0.4211
     34 H8         -3.9180   -2.1562   -1.2372 H         1 <0>         0.1830
     35 H9          4.1579    5.5030   -2.1341 H         1 <0>         0.4088
     36 H10         5.5187    6.4782   -2.2749 H         1 <0>         0.4093
     37 H11         7.6829    2.0946    0.2081 H         1 <0>         0.0775
     38 H12         7.4803    3.6899    0.9598 H         1 <0>         0.1037
     39 H13         8.1280    1.7188    2.4980 H         1 <0>         0.0925
     40 H14         6.7920    2.7647    3.0227 H         1 <0>         0.0972
     41 H15         3.4829   -0.8287    1.5270 H         1 <0>         0.1881
@<TRIPOS>BOND
     1    1    6 ar
     2    1    2 ar
     3    1   28 1
     4    2    3 ar
     5    2   29 1
     6    3    4 ar
     7    3   12 1
     8    4    5 ar
     9    4   30 1
    10    5    6 ar
    11    5   31 1
    12    6    7 1
    13    7   11 1
    14    7    8 2
    15    8    9 1
    16    9   10 2
    17    9   32 1
    18   10   11 1
    19   10   34 1
    20   11   33 1
    21   12   16 1
    22   12   13 1
    23   13   14 2
    24   13   23 1
    25   14   15 1
    26   14   20 1
    27   15   16 2
    28   15   17 1
    29   17   18 2
    30   17   19 am
    31   19   35 1
    32   19   36 1
    33   20   21 1
    34   20   37 1
    35   20   38 1
    36   21   39 1
    37   21   40 1
    38   21   22 1
    39   22   23 2
    40   22   27 1
    41   23   24 1
    42   24   25 2
    43   24   41 1
    44   25   27 1
    45   26   27 1
@<TRIPOS>MOLECULE
CHEMBL337325
   59    62     0     0     0
SMALL
USER_CHARGES

@<TRIPOS>ATOM
      1 C1         -3.0570  -11.7747    2.6534 C.3       1 <0>         0.0261
      2 O1         -1.9315  -11.8209    1.7741 O.3       1 <0>        -0.3067
      3 C2         -0.7058  -11.9474    2.3471 C.ar      1 <0>         0.1840
      4 C3         -0.5897  -12.0310    3.7274 C.ar      1 <0>        -0.2481
      5 C4          0.6564  -12.1590    4.3106 C.ar      1 <0>        -0.0289
      6 C5          1.7897  -12.2042    3.5215 C.ar      1 <0>        -0.2477
      7 C6          1.6789  -12.1214    2.1406 C.ar      1 <0>         0.1850
      8 C7          0.4293  -11.9986    1.5528 C.ar      1 <0>        -0.1831
      9 C8          0.3057  -11.9143    0.0533 C.3       1 <0>         0.1809
     10 N1          0.3755  -10.5118   -0.3644 N.am      1 <0>        -0.7139
     11 C9          0.2863  -10.1925   -1.6708 C.2       1 <0>         0.5563
     12 O2          0.1480  -11.0684   -2.5026 O.2       1 <0>        -0.5278
     13 C10         0.3566   -8.7791   -2.0917 C.ar      1 <0>        -0.1513
     14 C11         0.5217   -7.7699   -1.1345 C.ar      1 <0>        -0.0692
     15 C12         0.5882   -6.4599   -1.5101 C.ar      1 <0>        -0.1192
     16 C13         0.4923   -6.1086   -2.8547 C.ar      1 <0>         0.1279
     17 C14         0.3265   -7.1139   -3.8237 C.ar      1 <0>        -0.0944
     18 C15         0.2645   -8.4481   -3.4422 C.ar      1 <0>        -0.0158
     19 C16         0.2608   -6.4216   -5.1252 C.2       1 <0>        -0.1224
     20 C17         0.3899   -5.0693   -4.8508 C.2       1 <0>         0.3421
     21 N2          0.5261   -4.8936   -3.5083 N.pl3     1 <0>        -0.5761
     22 H1          0.6318   -4.0340   -3.0715 H         1 <0>         0.4263
     23 O3          0.3824   -4.0798   -5.7726 O.3       1 <0>        -0.4511
     24 N3          0.1061   -6.9907   -6.3384 N.2       1 <0>        -0.0716
     25 N4          0.9890   -7.8222   -6.7781 N.2       1 <0>        -0.1452
     26 C18         1.8273   -8.4558   -5.9027 C.ar      1 <0>         0.0595
     27 C19         2.9325   -7.7820   -5.3767 C.ar      1 <0>        -0.1289
     28 C20         3.7734   -8.4271   -4.4941 C.ar      1 <0>        -0.0050
     29 C21         3.5245   -9.7386   -4.1293 C.ar      1 <0>        -0.6737
     30 C22         2.4321  -10.4124   -4.6465 C.ar      1 <0>         0.0106
     31 C23         1.5794   -9.7782   -5.5257 C.ar      1 <0>        -0.1113
     32 S1          4.6043  -10.5547   -3.0011 S.o2      1 <0>         2.6961
     33 O4          4.4650  -11.9482   -3.2416 O.2       1 <0>        -0.9554
     34 O5          5.8568   -9.8887   -3.0839 O.2       1 <0>        -0.9639
     35 N5          4.0203  -10.2768   -1.4766 N.pl3     1 <0>        -1.2439
     36 O6          2.7939  -12.1659    1.3650 O.3       1 <0>        -0.3036
     37 C24         4.0475  -12.2989    2.0381 C.3       1 <0>         0.0210
     38 H2         -2.9584  -10.9220    3.3252 H         1 <0>         0.0580
     39 H3         -3.9711  -11.6726    2.0685 H         1 <0>         0.1032
     40 H4         -3.1001  -12.6942    3.2372 H         1 <0>         0.0589
     41 H5         -1.4741  -11.9956    4.3463 H         1 <0>         0.1319
     42 H6          0.7447  -12.2236    5.3850 H         1 <0>         0.1299
     43 H7          2.7626  -12.3036    3.9797 H         1 <0>         0.1327
     44 H8          1.1192  -12.4724   -0.4103 H         1 <0>         0.0855
     45 H9         -0.6491  -12.3387   -0.2570 H         1 <0>         0.0812
     46 H10         0.4858   -9.8131    0.2992 H         1 <0>         0.3972
     47 H11         0.5968   -8.0312   -0.0893 H         1 <0>         0.1352
     48 H12         0.7153   -5.6919   -0.7615 H         1 <0>         0.1353
     49 H13         0.1420   -9.2220   -4.1855 H         1 <0>         0.1458
     50 H14        -0.4868   -3.6804   -5.9139 H         1 <0>         0.4120
     51 H15         3.1281   -6.7586   -5.6609 H         1 <0>         0.1317
     52 H16         4.6282   -7.9077   -4.0871 H         1 <0>         0.1456
     53 H17         2.2442  -11.4360   -4.3576 H         1 <0>         0.1552
     54 H18         0.7247  -10.3038   -5.9251 H         1 <0>         0.1460
     55 H19         3.2188   -9.7446   -1.3538 H         1 <0>         0.4130
     56 H20         4.4799  -10.6464   -0.7064 H         1 <0>         0.4199
     57 H21         4.1911  -11.4521    2.7092 H         1 <0>         0.0597
     58 H22         4.0542  -13.2243    2.6140 H         1 <0>         0.0605
     59 H23         4.8532  -12.3217    1.3043 H         1 <0>         0.1037
@<TRIPOS>BOND
     1    1    2 1
     2    1   38 1
     3    1   39 1
     4    1   40 1
     5    2    3 1
     6    3    8 ar
     7    3    4 ar
     8    4    5 ar
     9    4   41 1
    10    5    6 ar
    11    5   42 1
    12    6    7 ar
    13    6   43 1
    14    7    8 ar
    15    7   36 1
    16    8    9 1
    17    9   10 1
    18    9   44 1
    19    9   45 1
    20   10   11 am
    21   10   46 1
    22   11   12 2
    23   11   13 1
    24   13   18 ar
    25   13   14 ar
    26   14   15 ar
    27   14   47 1
    28   15   16 ar
    29   15   48 1
    30   16   21 1
    31   16   17 ar
    32   17   18 ar
    33   17   19 1
    34   18   49 1
    35   19   20 2
    36   19   24 1
    37   20   21 1
    38   20   23 1
    39   21   22 1
    40   23   50 1
    41   24   25 2
    42   25   26 1
    43   26   31 ar
    44   26   27 ar
    45   27   28 ar
    46   27   51 1
    47   28   29 ar
    48   28   52 1
    49   29   30 ar
    50   29   32 1
    51   30   31 ar
    52   30   53 1
    53   31   54 1
    54   32   33 2
    55   32   34 2
    56   32   35 1
    57   35   55 1
    58   35   56 1
    59   36   37 1
    60   37   57 1
    61   37   58 1
    62   37   59 1
@<TRIPOS>MOLECULE
CHEMBL337325
   59    62     0     0     0
SMALL
USER_CHARGES

@<TRIPOS>ATOM
      1 C1         -0.0173    1.4248    0.0099 C.3       1 <0>         0.0260
      2 O1          0.0021   -0.0041    0.0020 O.3       1 <0>        -0.3066
      3 C2          0.6258   -0.6184    1.0415 C.ar      1 <0>         0.1843
      4 C3          1.2023    0.1392    2.0512 C.ar      1 <0>        -0.2481
      5 C4          1.8370   -0.4847    3.1080 C.ar      1 <0>        -0.0291
      6 C5          1.8995   -1.8640    3.1624 C.ar      1 <0>        -0.2480
      7 C6          1.3242   -2.6260    2.1554 C.ar      1 <0>         0.1844
      8 C7          0.6818   -2.0025    1.0969 C.ar      1 <0>        -0.1831
      9 C8          0.0512   -2.8277    0.0049 C.3       1 <0>         0.1826
     10 N1          1.0362   -3.0751   -1.0509 N.am      1 <0>        -0.7151
     11 C9          0.6938   -3.7971   -2.1362 C.2       1 <0>         0.5616
     12 O2         -0.4326   -4.2431   -2.2390 O.2       1 <0>        -0.5334
     13 C10         1.6865   -4.0465   -3.2003 C.ar      1 <0>        -0.1424
     14 C11         2.9860   -3.5378   -3.0798 C.ar      1 <0>        -0.0643
     15 C12         3.9129   -3.7609   -4.0559 C.ar      1 <0>        -0.1191
     16 C13         3.5772   -4.4999   -5.1881 C.ar      1 <0>         0.1200
     17 C14         2.2754   -5.0150   -5.3189 C.ar      1 <0>        -0.0579
     18 C15         1.3332   -4.7929   -4.3227 C.ar      1 <0>         0.0021
     19 C16         2.2472   -5.7351   -6.6066 C.2       1 <0>        -0.0382
     20 C17         3.5149   -5.6040   -7.1508 C.2       1 <0>         0.3452
     21 N2          4.2935   -4.8735   -6.3070 N.pl3     1 <0>        -0.5745
     22 H1          5.2225   -4.6467   -6.4695 H         1 <0>         0.4243
     23 O3          3.9157   -6.1214   -8.3343 O.3       1 <0>        -0.4414
     24 N3          1.1981   -6.3896   -7.1458 N.2       1 <0>        -0.1406
     25 N4          1.3221   -6.9773   -8.2874 N.2       1 <0>        -0.2706
     26 C18         0.2584   -7.6409   -8.8340 C.ar      1 <0>         0.1304
     27 C19        -0.9657   -7.6794   -8.1615 C.ar      1 <0>        -0.1419
     28 C20        -2.0342   -8.3501   -8.7191 C.ar      1 <0>        -0.0143
     29 C21        -1.8960   -8.9838   -9.9415 C.ar      1 <0>        -0.6733
     30 C22        -0.6865   -8.9502  -10.6130 C.ar      1 <0>        -0.0171
     31 C23         0.3890   -8.2785  -10.0704 C.ar      1 <0>        -0.0986
     32 S1         -3.2665   -9.8382  -10.6460 S.o2      1 <0>         2.7019
     33 O4         -2.7277  -10.8079  -11.5340 O.2       1 <0>        -0.9626
     34 O5         -4.1257  -10.1856   -9.5688 O.2       1 <0>        -0.9619
     35 N5         -4.0945   -8.7497  -11.5797 N.pl3     1 <0>        -1.2499
     36 O6          1.3859   -3.9825    2.2095 O.3       1 <0>        -0.3064
     37 C24         2.0586   -4.5571    3.3317 C.3       1 <0>         0.0259
     38 H2          1.0053    1.8021    0.0021 H         1 <0>         0.0581
     39 H3         -0.5445    1.7859   -0.8732 H         1 <0>         0.1034
     40 H4         -0.5275    1.7763    0.9067 H         1 <0>         0.0588
     41 H5          1.1550    1.2174    2.0107 H         1 <0>         0.1325
     42 H6          2.2854    0.1066    3.8927 H         1 <0>         0.1304
     43 H7          2.3968   -2.3494    3.9892 H         1 <0>         0.1326
     44 H8         -0.2863   -3.7786    0.4171 H         1 <0>         0.0812
     45 H9         -0.8004   -2.2895   -0.4115 H         1 <0>         0.0812
     46 H10         1.9348   -2.7193   -0.9689 H         1 <0>         0.3975
     47 H11         3.2567   -2.9633   -2.2063 H         1 <0>         0.1343
     48 H12         4.9112   -3.3626   -3.9504 H         1 <0>         0.1354
     49 H13         0.3342   -5.1919   -4.4192 H         1 <0>         0.1482
     50 H14         3.7798   -5.5309   -9.0879 H         1 <0>         0.4105
     51 H15        -1.0749   -7.1855   -7.2073 H         1 <0>         0.1461
     52 H16        -2.9809   -8.3810   -8.2002 H         1 <0>         0.1463
     53 H17        -0.5857   -9.4474  -11.5665 H         1 <0>         0.1501
     54 H18         1.3311   -8.2494  -10.5976 H         1 <0>         0.1440
     55 H19        -3.7830   -7.8336  -11.6482 H         1 <0>         0.4169
     56 H20        -4.8910   -9.0282  -12.0582 H         1 <0>         0.4213
     57 H21         3.0936   -4.2159    3.3487 H         1 <0>         0.0582
     58 H22         1.5596   -4.2498    4.2508 H         1 <0>         0.0588
     59 H23         2.0355   -5.6439    3.2517 H         1 <0>         0.1037
@<TRIPOS>BOND
     1    1    2 1
     2    1   38 1
     3    1   39 1
     4    1   40 1
     5    2    3 1
     6    3    8 ar
     7    3    4 ar
     8    4    5 ar
     9    4   41 1
    10    5    6 ar
    11    5   42 1
    12    6    7 ar
    13    6   43 1
    14    7    8 ar
    15    7   36 1
    16    8    9 1
    17    9   10 1
    18    9   44 1
    19    9   45 1
    20   10   11 am
    21   10   46 1
    22   11   12 2
    23   11   13 1
    24   13   18 ar
    25   13   14 ar
    26   14   15 ar
    27   14   47 1
    28   15   16 ar
    29   15   48 1
    30   16   21 1
    31   16   17 ar
    32   17   18 ar
    33   17   19 1
    34   18   49 1
    35   19   20 2
    36   19   24 1
    37   20   21 1
    38   20   23 1
    39   21   22 1
    40   23   50 1
    41   24   25 2
    42   25   26 1
    43   26   31 ar
    44   26   27 ar
    45   27   28 ar
    46   27   51 1
    47   28   29 ar
    48   28   52 1
    49   29   30 ar
    50   29   32 1
    51   30   31 ar
    52   30   53 1
    53   31   54 1
    54   32   33 2
    55   32   34 2
    56   32   35 1
    57   35   55 1
    58   35   56 1
    59   36   37 1
    60   37   57 1
    61   37   58 1
    62   37   59 1
@<TRIPOS>MOLECULE
CHEMBL590109
   51    56     0     0     0
SMALL
USER_CHARGES

@<TRIPOS>ATOM
      1 C1         -0.0164    1.3550    0.0095 C.ar      1 <0>        -0.1194
      2 C2          1.1574    2.0971    0.0023 C.ar      1 <0>        -0.0891
      3 C3          2.3749    1.4455   -0.0129 C.ar      1 <0>        -0.0787
      4 C4          2.4083    0.0676   -0.0206 C.ar      1 <0>        -0.1093
      5 C5          1.2295   -0.7113   -0.0135 C.ar      1 <0>        -0.0925
      6 C6          0.0021   -0.0041    0.0020 C.ar      1 <0>        -0.0738
      7 C7          1.4485   -2.1470   -0.0234 C.2       1 <0>        -0.1182
      8 C8          2.7191   -2.6185   -0.0380 C.2       1 <0>        -0.0938
      9 S1          3.7106   -1.1371   -0.0395 S.3       1 <0>         0.0292
     10 C9          3.1737   -4.0242   -0.0504 C.ar      1 <0>        -0.0370
     11 C10         2.6581   -4.9311    0.8653 C.ar      1 <0>        -0.0288
     12 C11         3.0842   -6.2618    0.8585 C.ar      1 <0>        -0.0628
     13 C12         4.0273   -6.6917   -0.0635 C.ar      1 <0>         0.0088
     14 C13         4.5552   -5.7888   -0.9926 C.ar      1 <0>        -0.1764
     15 C14         4.1256   -4.4495   -0.9933 C.ar      1 <0>         0.1546
     16 N1          4.8021   -3.8175   -2.0018 N.pl3     1 <0>        -0.5015
     17 H1          4.7127   -2.8811   -2.2386 H         1 <0>         0.4426
     18 N2          5.6428   -4.7377   -2.6360 N.2       1 <0>        -0.2389
     19 C15         5.5347   -5.9056   -2.0694 C.2       1 <0>         0.0835
     20 C16         2.5252   -7.2202    1.8433 C.2       1 <0>        -0.1020
     21 C17         2.4286   -7.0381    3.1855 C.2       1 <0>         0.0944
     22 N3          1.8617   -8.1356    3.7607 N.pl3     1 <0>        -0.4728
     23 C18         1.5690   -9.0763    2.7969 C.ar      1 <0>        -0.0809
     24 C19         1.9647   -8.5439    1.5538 C.ar      1 <0>         0.2073
     25 N4          1.7811   -9.2643    0.4495 N.ar      1 <0>        -0.5334
     26 C20         1.2301  -10.4643    0.5220 C.ar      1 <0>         0.5639
     27 N5          0.8430  -10.9926    1.6764 N.ar      1 <0>        -0.5430
     28 C21         1.0001  -10.3437    2.8184 C.ar      1 <0>         0.2059
     29 N6          1.0507  -11.1927   -0.6439 N.pl3     1 <0>        -0.8177
     30 C22         1.6019   -8.2929    5.1939 C.3       1 <0>         0.0913
     31 C23         2.7659   -9.0436    5.8439 C.3       1 <0>        -0.0341
     32 N7          2.5053   -9.2013    7.2810 N.4       1 <0>        -0.6328
     33 H2         -0.9657    1.8696    0.0259 H         1 <0>         0.1309
     34 H3          1.1184    3.1764    0.0081 H         1 <0>         0.1379
     35 H4          3.2946    2.0117   -0.0190 H         1 <0>         0.1336
     36 H5         -0.9293   -0.5508    0.0084 H         1 <0>         0.1269
     37 H6          0.6111   -2.8290   -0.0187 H         1 <0>         0.1395
     38 H7          1.9237   -4.6061    1.5874 H         1 <0>         0.1339
     39 H8          4.3536   -7.7212   -0.0639 H         1 <0>         0.1329
     40 H9          6.0659   -6.8023   -2.3525 H         1 <0>         0.2025
     41 H10         2.7529   -6.1558    3.7173 H         1 <0>         0.1874
     42 H11         0.6792  -10.7860    3.7500 H         1 <0>         0.1617
     43 H12         1.3280  -10.8207   -1.4957 H         1 <0>         0.4190
     44 H13         0.6480  -12.0744   -0.6077 H         1 <0>         0.4179
     45 H14         1.5007   -7.3103    5.6548 H         1 <0>         0.1171
     46 H15         0.6805   -8.8576    5.3363 H         1 <0>         0.1102
     47 H16         2.8670  -10.0262    5.3830 H         1 <0>         0.1399
     48 H17         3.6872   -8.4789    5.7015 H         1 <0>         0.1430
     49 H18         2.4117   -8.2917    7.7076 H         1 <0>         0.4382
     50 H19         1.6524   -9.7240    7.4128 H         1 <0>         0.4380
     51 H20         3.2729   -9.6964    7.7096 H         1 <0>         0.4450
@<TRIPOS>BOND
     1    1    6 ar
     2    1    2 ar
     3    1   33 1
     4    2    3 ar
     5    2   34 1
     6    3    4 ar
     7    3   35 1
     8    4    9 1
     9    4    5 ar
    10    5    6 ar
    11    5    7 1
    12    6   36 1
    13    7    8 2
    14    7   37 1
    15    8    9 1
    16    8   10 1
    17   10   15 ar
    18   10   11 ar
    19   11   12 ar
    20   11   38 1
    21   12   13 ar
    22   12   20 1
    23   13   14 ar
    24   13   39 1
    25   14   19 1
    26   14   15 ar
    27   15   16 1
    28   16   17 1
    29   16   18 1
    30   18   19 2
    31   19   40 1
    32   20   24 1
    33   20   21 2
    34   21   22 1
    35   21   41 1
    36   22   23 1
    37   22   30 1
    38   23   28 ar
    39   23   24 ar
    40   24   25 ar
    41   25   26 ar
    42   26   27 ar
    43   26   29 1
    44   27   28 ar
    45   28   42 1
    46   29   43 1
    47   29   44 1
    48   30   31 1
    49   30   45 1
    50   30   46 1
    51   31   32 1
    52   31   47 1
    53   31   48 1
    54   32   49 1
    55   32   50 1
    56   32   51 1
@<TRIPOS>MOLECULE
CHEMBL188010
   52    56     0     0     0
SMALL
USER_CHARGES

@<TRIPOS>ATOM
      1 C1         -0.0349    1.4171   -0.0299 C.3       1 <0>         0.0236
      2 O1         -0.0190   -0.0118   -0.0396 O.3       1 <0>        -0.3114
      3 C2         -1.2218   -0.6418   -0.0205 C.ar      1 <0>         0.1530
      4 C3         -2.3941    0.1039    0.0013 C.ar      1 <0>        -0.2103
      5 C4         -3.6164   -0.5311    0.0207 C.ar      1 <0>        -0.0507
      6 C5         -3.6762   -1.9274    0.0185 C.ar      1 <0>        -0.1029
      7 C6         -2.4946   -2.6735   -0.0035 C.ar      1 <0>        -0.0252
      8 C7         -1.2767   -2.0302   -0.0285 C.ar      1 <0>        -0.1502
      9 C8         -4.9830   -2.6119    0.0397 C.2       1 <0>         0.2450
     10 C9         -5.3336   -3.6923    0.8377 C.2       1 <0>        -0.3336
     11 C10        -6.7228   -4.0219    0.5085 C.2       1 <0>         0.1274
     12 N1         -7.1159   -3.1776   -0.4129 N.2       1 <0>        -0.2328
     13 N2         -6.0724   -2.2975   -0.7161 N.pl3     1 <0>        -0.4649
     14 H1         -6.1165   -1.5773   -1.3644 H         1 <0>         0.4489
     15 C11        -7.1199   -5.1769    1.3515 C.ar      1 <0>         0.0441
     16 C12        -8.3115   -5.8848    1.4441 C.ar      1 <0>        -0.1063
     17 C13        -8.4270   -6.9443    2.3286 C.ar      1 <0>        -0.0589
     18 C14        -7.3628   -7.3097    3.1273 C.ar      1 <0>        -0.1298
     19 C15        -6.1596   -6.6158    3.0515 C.ar      1 <0>         0.2405
     20 C16        -6.0301   -5.5422    2.1609 C.ar      1 <0>        -0.1947
     21 C17        -4.8965   -4.6412    1.8706 C.2       1 <0>         0.4951
     22 O2         -3.7982   -4.6782    2.3928 O.2       1 <0>        -0.4511
     23 N3         -5.0878   -6.9864    3.8588 N.am      1 <0>        -0.6754
     24 C18        -4.9992   -8.2482    4.3239 C.2       1 <0>         0.7166
     25 O3         -5.7972   -9.0889    3.9568 O.2       1 <0>        -0.5417
     26 N4         -4.0261   -8.5782    5.1960 N.am      1 <0>        -0.5176
     27 N5         -3.1065   -7.6096    5.6191 N.am      1 <0>        -0.5264
     28 C19        -2.1334   -7.9396    6.4912 C.2       1 <0>         0.5672
     29 O4         -2.0535   -9.0772    6.9105 O.2       1 <0>        -0.5129
     30 C20        -1.1610   -6.9152    6.9385 C.ar      1 <0>        -0.0837
     31 C21        -1.2385   -5.5992    6.4729 C.ar      1 <0>        -0.1424
     32 C22        -0.3114   -4.6760    6.9165 C.ar      1 <0>         0.1040
     33 N6          0.6353   -5.0221    7.7659 N.ar      1 <0>        -0.4630
     34 C23         0.7440   -6.2513    8.2293 C.ar      1 <0>         0.1028
     35 C24        -0.1439   -7.2364    7.8425 C.ar      1 <0>        -0.1085
     36 H2          0.9885    1.7919   -0.0472 H         1 <0>         0.1047
     37 H3         -0.5698    1.7804   -0.9073 H         1 <0>         0.0587
     38 H4         -0.5354    1.7688    0.8723 H         1 <0>         0.0593
     39 H5         -2.3469    1.1828    0.0034 H         1 <0>         0.1370
     40 H6         -4.5270    0.0493    0.0380 H         1 <0>         0.1291
     41 H7         -2.5363   -3.7527   -0.0049 H         1 <0>         0.1377
     42 H8         -0.3632   -2.6059   -0.0503 H         1 <0>         0.1410
     43 H9         -9.1514   -5.6076    0.8243 H         1 <0>         0.1398
     44 H10        -9.3575   -7.4887    2.3940 H         1 <0>         0.1448
     45 H11        -7.4644   -8.1371    3.8139 H         1 <0>         0.1626
     46 H12        -4.4047   -6.3365    4.0866 H         1 <0>         0.4110
     47 H13        -3.9623   -9.4864    5.5308 H         1 <0>         0.4509
     48 H14        -3.1703   -6.7014    5.2843 H         1 <0>         0.4223
     49 H15        -2.0114   -5.3087    5.7766 H         1 <0>         0.1386
     50 H16        -0.3628   -3.6571    6.5623 H         1 <0>         0.1669
     51 H17         1.5355   -6.4905    8.9241 H         1 <0>         0.1687
     52 H18        -0.0517   -8.2403    8.2298 H         1 <0>         0.1529
@<TRIPOS>BOND
     1    1    2 1
     2    1   36 1
     3    1   37 1
     4    1   38 1
     5    2    3 1
     6    3    8 ar
     7    3    4 ar
     8    4    5 ar
     9    4   39 1
    10    5    6 ar
    11    5   40 1
    12    6    7 ar
    13    6    9 1
    14    7    8 ar
    15    7   41 1
    16    8   42 1
    17    9   13 1
    18    9   10 2
    19   10   21 1
    20   10   11 1
    21   11   12 2
    22   11   15 1
    23   12   13 1
    24   13   14 1
    25   15   20 ar
    26   15   16 ar
    27   16   17 ar
    28   16   43 1
    29   17   18 ar
    30   17   44 1
    31   18   19 ar
    32   18   45 1
    33   19   20 ar
    34   19   23 1
    35   20   21 1
    36   21   22 2
    37   23   24 am
    38   23   46 1
    39   24   25 2
    40   24   26 am
    41   26   27 1
    42   26   47 1
    43   27   28 am
    44   27   48 1
    45   28   29 2
    46   28   30 1
    47   30   35 ar
    48   30   31 ar
    49   31   32 ar
    50   31   49 1
    51   32   33 ar
    52   32   50 1
    53   33   34 ar
    54   34   35 ar
    55   34   51 1
    56   35   52 1
@<TRIPOS>MOLECULE
CHEMBL188010
   52    56     0     0     0
SMALL
USER_CHARGES

@<TRIPOS>ATOM
      1 C1         -0.0654    1.4481    0.0159 C.3       1 <0>         0.0248
      2 O1         -0.0356    0.0194    0.0026 O.3       1 <0>        -0.3143
      3 C2         -1.2328   -0.6226    0.0152 C.ar      1 <0>         0.1450
      4 C3         -2.4119    0.1106    0.0341 C.ar      1 <0>        -0.2133
      5 C4         -3.6285   -0.5379    0.0465 C.ar      1 <0>        -0.0418
      6 C5         -3.6741   -1.9318    0.0400 C.ar      1 <0>        -0.0742
      7 C6         -2.4881   -2.6652    0.0210 C.ar      1 <0>        -0.0351
      8 C7         -1.2748   -2.0105    0.0034 C.ar      1 <0>        -0.1527
      9 C8         -4.9801   -2.6322    0.0538 C.2       1 <0>         0.2027
     10 C9         -5.2802   -3.8486   -0.6048 C.2       1 <0>        -0.3141
     11 C10        -6.6082   -4.1486   -0.3318 C.2       1 <0>         0.1587
     12 N1         -7.0893   -3.1613    0.4543 N.pl3     1 <0>        -0.4232
     13 N2         -6.0655   -2.2360    0.6855 N.2       1 <0>        -0.2697
     14 H1         -7.9926   -3.1050    0.8032 H         1 <0>         0.4477
     15 C11        -6.9615   -5.4204   -1.0071 C.ar      1 <0>         0.0135
     16 C12        -8.1402   -6.1498   -1.0559 C.ar      1 <0>        -0.1079
     17 C13        -8.1990   -7.3345   -1.7788 C.ar      1 <0>        -0.0612
     18 C14        -7.0925   -7.7985   -2.4542 C.ar      1 <0>        -0.1241
     19 C15        -5.8955   -7.0794   -2.4183 C.ar      1 <0>         0.2460
     20 C16        -5.8268   -5.8891   -1.6953 C.ar      1 <0>        -0.1955
     21 C17        -4.7338   -4.9177   -1.4649 C.2       1 <0>         0.4883
     22 O2         -3.6019   -4.9864   -1.9017 O.2       1 <0>        -0.4381
     23 N3         -4.7776   -7.5487   -3.0998 N.am      1 <0>        -0.6752
     24 C18        -4.9291   -8.3647   -4.1617 C.2       1 <0>         0.7170
     25 O3         -6.0416   -8.6086   -4.5871 O.2       1 <0>        -0.5418
     26 N4         -3.8473   -8.9104   -4.7521 N.am      1 <0>        -0.5165
     27 N5         -2.5653   -8.6293   -4.2619 N.am      1 <0>        -0.5270
     28 C19        -1.4836   -9.1750   -4.8522 C.2       1 <0>         0.5677
     29 O4         -1.6202   -9.9107   -5.8096 O.2       1 <0>        -0.5124
     30 C20        -0.1279   -8.8778   -4.3339 C.ar      1 <0>        -0.0843
     31 C21         0.0512   -8.0387   -3.2299 C.ar      1 <0>        -0.1426
     32 C22         1.3331   -7.7889   -2.7795 C.ar      1 <0>         0.1046
     33 N6          2.3773   -8.3293   -3.3754 N.ar      1 <0>        -0.4624
     34 C23         2.2528   -9.1256   -4.4184 C.ar      1 <0>         0.1032
     35 C24         1.0075   -9.4333   -4.9314 C.ar      1 <0>        -0.1086
     36 H2          0.9543    1.8329    0.0037 H         1 <0>         0.1025
     37 H3         -0.6003    1.8085   -0.8628 H         1 <0>         0.0577
     38 H4         -0.5730    1.7925    0.9169 H         1 <0>         0.0579
     39 H5         -2.3759    1.1900    0.0394 H         1 <0>         0.1338
     40 H6         -4.5453    0.0329    0.0615 H         1 <0>         0.1311
     41 H7         -2.5200   -3.7447    0.0163 H         1 <0>         0.1358
     42 H8         -0.3560   -2.5778   -0.0158 H         1 <0>         0.1378
     43 H9         -9.0147   -5.7958   -0.5301 H         1 <0>         0.1371
     44 H10        -9.1206   -7.8968   -1.8110 H         1 <0>         0.1458
     45 H11        -7.1502   -8.7209   -3.0129 H         1 <0>         0.1641
     46 H12        -3.8889   -7.2886   -2.8109 H         1 <0>         0.4118
     47 H13        -3.9564   -9.4977   -5.5163 H         1 <0>         0.4514
     48 H14        -2.4563   -8.0420   -3.4976 H         1 <0>         0.4222
     49 H15        -0.7997   -7.5922   -2.7370 H         1 <0>         0.1385
     50 H16         1.4817   -7.1418   -1.9277 H         1 <0>         0.1678
     51 H17         3.1361   -9.5466   -4.8756 H         1 <0>         0.1688
     52 H18         0.9127  -10.0902   -5.7834 H         1 <0>         0.1527
@<TRIPOS>BOND
     1    1    2 1
     2    1   36 1
     3    1   37 1
     4    1   38 1
     5    2    3 1
     6    3    8 ar
     7    3    4 ar
     8    4    5 ar
     9    4   39 1
    10    5    6 ar
    11    5   40 1
    12    6    7 ar
    13    6    9 1
    14    7    8 ar
    15    7   41 1
    16    8   42 1
    17    9   10 1
    18    9   13 2
    19   10   21 1
    20   10   11 2
    21   11   15 1
    22   11   12 1
    23   12   14 1
    24   12   13 1
    25   15   20 ar
    26   15   16 ar
    27   16   17 ar
    28   16   43 1
    29   17   18 ar
    30   17   44 1
    31   18   19 ar
    32   18   45 1
    33   19   20 ar
    34   19   23 1
    35   20   21 1
    36   21   22 2
    37   23   24 am
    38   23   46 1
    39   24   25 2
    40   24   26 am
    41   26   27 1
    42   26   47 1
    43   27   28 am
    44   27   48 1
    45   28   29 2
    46   28   30 1
    47   30   35 ar
    48   30   31 ar
    49   31   32 ar
    50   31   49 1
    51   32   33 ar
    52   32   50 1
    53   33   34 ar
    54   34   35 ar
    55   34   51 1
    56   35   52 1
@<TRIPOS>MOLECULE
CHEMBL125731
   35    37     0     0     0
SMALL
USER_CHARGES

@<TRIPOS>ATOM
      1 C1         -0.0184    1.5028    0.0103 C.3       1 <0>        -0.1658
      2 C2          0.0021   -0.0041    0.0020 C.2       1 <0>         0.5056
      3 O1          0.0203   -0.6161    1.0491 O.2       1 <0>        -0.4726
      4 N1          0.0001   -0.6716   -1.1688 N.am      1 <0>        -0.6200
      5 C3          0.0189   -2.0636   -1.1765 C.2       1 <0>         0.3388
      6 N2          0.0342   -2.9055   -0.1599 N.2       1 <0>        -0.4903
      7 C4          0.0512   -4.2115   -0.3506 C.2       1 <0>         0.0876
      8 C5          0.0532   -4.7063   -1.6201 C.2       1 <0>        -0.2274
      9 S1          0.0211   -3.1888   -2.5656 S.3       1 <0>         0.0223
     10 S2          0.0744   -6.3782   -2.1760 S.3       1 <0>         0.0419
     11 C6          0.0654   -6.2394   -3.9847 C.3       1 <0>        -0.0301
     12 C7          0.0822   -7.6174   -4.5943 C.2       1 <0>         0.1941
     13 N3         -0.9707   -8.3219   -4.9015 N.2       1 <0>        -0.4485
     14 C8         -0.5737   -9.4927   -5.4220 C.2       1 <0>        -0.0197
     15 C9          0.7840   -9.4968   -5.4301 C.2       1 <0>         0.0161
     16 O2          1.1820   -8.3135   -4.9132 O.3       1 <0>        -0.1859
     17 C10         1.6589  -10.5848   -5.9160 C.ar      1 <0>        -0.0232
     18 C11         1.1008  -11.7531   -6.4373 C.ar      1 <0>        -0.0918
     19 C12         1.9229  -12.7646   -6.8891 C.ar      1 <0>        -0.1147
     20 C13         3.2978  -12.6229   -6.8263 C.ar      1 <0>        -0.1053
     21 C14         3.8574  -11.4674   -6.3108 C.ar      1 <0>        -0.1161
     22 C15         3.0466  -10.4458   -5.8609 C.ar      1 <0>        -0.0968
     23 H1          1.0042    1.8801    0.0026 H         1 <0>         0.1034
     24 H2         -0.5455    1.8639   -0.8728 H         1 <0>         0.0870
     25 H3         -0.5286    1.8543    0.9071 H         1 <0>         0.1044
     26 H4         -0.0145   -0.1822   -2.0061 H         1 <0>         0.4287
     27 H5          0.0639   -4.8839    0.4945 H         1 <0>         0.1761
     28 H6         -0.8333   -5.7117   -4.3041 H         1 <0>         0.1344
     29 H7          0.9465   -5.6869   -4.3111 H         1 <0>         0.1216
     30 H8         -1.2166  -10.2872   -5.7709 H         1 <0>         0.1932
     31 H9          0.0278  -11.8651   -6.4865 H         1 <0>         0.1315
     32 H10         1.4924  -13.6693   -7.2923 H         1 <0>         0.1331
     33 H11         3.9369  -13.4179   -7.1810 H         1 <0>         0.1292
     34 H12         4.9314  -11.3631   -6.2643 H         1 <0>         0.1305
     35 H13         3.4847   -9.5425   -5.4629 H         1 <0>         0.1288
@<TRIPOS>BOND
     1    1    2 1
     2    1   23 1
     3    1   24 1
     4    1   25 1
     5    2    3 2
     6    2    4 am
     7    4    5 1
     8    4   26 1
     9    5    9 1
    10    5    6 2
    11    6    7 1
    12    7    8 2
    13    7   27 1
    14    8    9 1
    15    8   10 1
    16   10   11 1
    17   11   12 1
    18   11   28 1
    19   11   29 1
    20   12   16 1
    21   12   13 2
    22   13   14 1
    23   14   15 2
    24   14   30 1
    25   15   16 1
    26   15   17 1
    27   17   22 ar
    28   17   18 ar
    29   18   19 ar
    30   18   31 1
    31   19   20 ar
    32   19   32 1
    33   20   21 ar
    34   20   33 1
    35   21   22 ar
    36   21   34 1
    37   22   35 1
@<TRIPOS>MOLECULE
CHEMBL409104
   45    48     0     0     0
SMALL
USER_CHARGES

@<TRIPOS>ATOM
      1 C1         -0.0116    1.3852    0.0708 C.ar      1 <0>        -0.1182
      2 C2          0.4458    0.7291    1.1988 C.ar      1 <0>        -0.1036
      3 C3          1.6500    0.0531    1.1654 C.ar      1 <0>        -0.1372
      4 C4          2.4004    0.0323   -0.0016 C.ar      1 <0>         0.0807
      5 C5          1.9389    0.6912   -1.1323 C.ar      1 <0>        -0.1184
      6 C6          0.7342    1.3661   -1.0933 C.ar      1 <0>        -0.1025
      7 O1          3.5855   -0.6316   -0.0370 O.3       1 <0>        -0.2400
      8 C7          3.5607   -1.9863    0.0605 C.ar      1 <0>         0.1921
      9 C8          2.3506   -2.6632    0.0621 C.ar      1 <0>        -0.2148
     10 C9          2.3298   -4.0429    0.1617 C.ar      1 <0>        -0.0363
     11 C10         3.5056   -4.7600    0.2602 C.ar      1 <0>        -0.1635
     12 C11         4.7305   -4.1008    0.2604 C.ar      1 <0>         0.1864
     13 C12         4.7525   -2.7047    0.1539 C.ar      1 <0>        -0.1079
     14 C13         6.1785   -2.3061    0.1747 C.2       1 <0>        -0.0025
     15 N1          6.6702   -1.0895    0.1034 N.2       1 <0>        -0.1074
     16 N2          7.9468   -0.9069    0.1347 N.pl3     1 <0>        -0.4910
     17 C14         8.4688    0.3847    0.0591 C.ar      1 <0>         0.2296
     18 C15         7.6147    1.4764   -0.0442 C.ar      1 <0>        -0.1588
     19 C16         8.1351    2.7532   -0.1184 C.ar      1 <0>         0.0135
     20 C17         9.5042    2.9466   -0.0900 C.ar      1 <0>        -0.7028
     21 C18        10.3572    1.8628    0.0127 C.ar      1 <0>         0.0172
     22 C19         9.8441    0.5834    0.0926 C.ar      1 <0>        -0.1769
     23 S1         10.1635    4.5779   -0.1855 S.o2      1 <0>         2.7046
     24 O2         11.4866    4.4523   -0.6884 O.2       1 <0>        -0.9636
     25 O3          9.1781    5.3774   -0.8250 O.2       1 <0>        -0.9628
     26 N3         10.2982    5.1431    1.3652 N.pl3     1 <0>        -1.2505
     27 C20         6.9259   -3.5698    0.2926 C.2       1 <0>         0.5480
     28 O4          8.1371   -3.6836    0.3437 O.2       1 <0>        -0.5157
     29 N4          6.0345   -4.5742    0.3467 N.am      1 <0>        -0.6410
     30 H1         -0.9553    1.9097    0.0978 H         1 <0>         0.1291
     31 H2         -0.1387    0.7456    2.1068 H         1 <0>         0.1307
     32 H3          2.0071   -0.4586    2.0468 H         1 <0>         0.1305
     33 H4          2.5212    0.6768   -2.0417 H         1 <0>         0.1333
     34 H5          0.3747    1.8793   -1.9730 H         1 <0>         0.1326
     35 H6          1.4242   -2.1133   -0.0140 H         1 <0>         0.1402
     36 H7          1.3841   -4.5644    0.1627 H         1 <0>         0.1405
     37 H8          3.4742   -5.8368    0.3376 H         1 <0>         0.1366
     38 H9          8.5438   -1.6677    0.2108 H         1 <0>         0.4112
     39 H10         6.5455    1.3261   -0.0668 H         1 <0>         0.1515
     40 H11         7.4721    3.6020   -0.1990 H         1 <0>         0.1505
     41 H12        11.4258    2.0177    0.0346 H         1 <0>         0.1518
     42 H13        10.5107   -0.2622    0.1769 H         1 <0>         0.1415
     43 H14        10.0298    4.5833    2.1105 H         1 <0>         0.4168
     44 H15        10.6455    6.0340    1.5282 H         1 <0>         0.4213
     45 H16         6.2716   -5.5116    0.4246 H         1 <0>         0.4249
@<TRIPOS>BOND
     1    1    6 ar
     2    1    2 ar
     3    1   30 1
     4    2    3 ar
     5    2   31 1
     6    3    4 ar
     7    3   32 1
     8    4    5 ar
     9    4    7 1
    10    5    6 ar
    11    5   33 1
    12    6   34 1
    13    7    8 1
    14    8   13 ar
    15    8    9 ar
    16    9   10 ar
    17    9   35 1
    18   10   11 ar
    19   10   36 1
    20   11   12 ar
    21   11   37 1
    22   12   29 1
    23   12   13 ar
    24   13   14 1
    25   14   15 2
    26   14   27 1
    27   15   16 1
    28   16   17 1
    29   16   38 1
    30   17   22 ar
    31   17   18 ar
    32   18   19 ar
    33   18   39 1
    34   19   20 ar
    35   19   40 1
    36   20   21 ar
    37   20   23 1
    38   21   22 ar
    39   21   41 1
    40   22   42 1
    41   23   24 2
    42   23   25 2
    43   23   26 1
    44   26   43 1
    45   26   44 1
    46   27   28 2
    47   27   29 am
    48   29   45 1
@<TRIPOS>MOLECULE
CHEMBL429142
   49    51     0     0     0
SMALL
USER_CHARGES

@<TRIPOS>ATOM
      1 C1         -0.0187    1.5258    0.0104 C.3       1 <0>        -0.1554
      2 C2          0.0021   -0.0041    0.0020 C.3       1 <0>        -0.0878
      3 C3          0.7182   -0.4975   -1.2568 C.3       1 <0>        -0.1493
      4 C4          0.7421   -0.5109    1.2415 C.3       1 <0>        -0.1634
      5 C5         -0.0298   -0.1295    2.4784 C.2       1 <0>         0.4001
      6 O1         -1.0695    0.4871    2.3783 O.2       1 <0>        -0.4503
      7 C6          0.4769   -0.5044    3.8051 C.ar      1 <0>        -0.1901
      8 C7          1.6813   -1.2120    3.9247 C.ar      1 <0>        -0.0444
      9 C8          2.1605   -1.5643    5.1523 C.ar      1 <0>        -0.1440
     10 C9          1.4587   -1.2261    6.3092 C.ar      1 <0>         0.1679
     11 C10         0.2517   -0.5174    6.1987 C.ar      1 <0>        -0.0844
     12 C11        -0.2370   -0.1519    4.9552 C.ar      1 <0>        -0.0171
     13 C12        -0.2401   -0.3160    7.5826 C.2       1 <0>        -0.2811
     14 C13        -1.3805    0.3232    7.9747 C.2       1 <0>         0.2485
     15 N1         -1.6860    0.4200    9.2982 N.pl3     1 <0>        -0.6306
     16 C14        -2.8536    1.0744    9.6998 C.ar      1 <0>         0.2174
     17 C15        -3.7067    1.6219    8.7498 C.ar      1 <0>        -0.1924
     18 C16        -4.8597    2.2680    9.1501 C.ar      1 <0>         0.0235
     19 C17        -5.1652    2.3707   10.4949 C.ar      1 <0>        -0.7069
     20 C18        -4.3183    1.8269   11.4432 C.ar      1 <0>         0.0224
     21 C19        -3.1667    1.1741   11.0496 C.ar      1 <0>        -0.1789
     22 S1         -6.6368    3.1970   11.0013 S.o2      1 <0>         2.7044
     23 O2         -6.4186    3.6339   12.3357 O.2       1 <0>        -0.9628
     24 O3         -6.9809    4.0926    9.9531 O.2       1 <0>        -0.9625
     25 N2         -7.8391    2.0600   11.0662 N.pl3     1 <0>        -1.2503
     26 C20         0.7665   -0.9536    8.4386 C.2       1 <0>         0.5657
     27 O4          0.7381   -1.0114    9.6552 O.2       1 <0>        -0.5277
     28 N3          1.7250   -1.4626    7.6468 N.am      1 <0>        -0.6461
     29 H1          1.0039    1.9031    0.0027 H         1 <0>         0.0500
     30 H2         -0.5459    1.8868   -0.8726 H         1 <0>         0.0543
     31 H3         -0.5289    1.8773    0.9072 H         1 <0>         0.0690
     32 H4         -1.0205   -0.3814    0.0098 H         1 <0>         0.0761
     33 H5          1.7408   -0.1202   -1.2645 H         1 <0>         0.0555
     34 H6          0.7330   -1.5874   -1.2628 H         1 <0>         0.0550
     35 H7          0.1910   -0.1364   -2.1398 H         1 <0>         0.0578
     36 H8          0.8346   -1.5958    1.1912 H         1 <0>         0.0997
     37 H9          1.7350   -0.0630    1.2804 H         1 <0>         0.1000
     38 H10         2.2345   -1.4809    3.0369 H         1 <0>         0.1399
     39 H11         3.0897   -2.1093    5.2289 H         1 <0>         0.1341
     40 H12        -1.1635    0.3971    4.8740 H         1 <0>         0.1372
     41 H13        -2.0406    0.7522    7.2354 H         1 <0>         0.1723
     42 H14        -1.0931    0.0346    9.9623 H         1 <0>         0.4311
     43 H15        -3.4682    1.5426    7.6994 H         1 <0>         0.1411
     44 H16        -5.5233    2.6938    8.4121 H         1 <0>         0.1516
     45 H17        -4.5599    1.9089   12.4927 H         1 <0>         0.1513
     46 H18        -2.5080    0.7457   11.7905 H         1 <0>         0.1422
     47 H19        -7.6456    1.1362   10.8426 H         1 <0>         0.4167
     48 H20        -8.7369    2.3179   11.3277 H         1 <0>         0.4218
     49 H21         2.5060   -1.9372    7.9718 H         1 <0>         0.4193
@<TRIPOS>BOND
     1    1    2 1
     2    1   29 1
     3    1   30 1
     4    1   31 1
     5    2    3 1
     6    2    4 1
     7    2   32 1
     8    3   33 1
     9    3   34 1
    10    3   35 1
    11    4    5 1
    12    4   36 1
    13    4   37 1
    14    5    6 2
    15    5    7 1
    16    7   12 ar
    17    7    8 ar
    18    8    9 ar
    19    8   38 1
    20    9   10 ar
    21    9   39 1
    22   10   28 1
    23   10   11 ar
    24   11   12 ar
    25   11   13 1
    26   12   40 1
    27   13   14 2
    28   13   26 1
    29   14   15 1
    30   14   41 1
    31   15   16 1
    32   15   42 1
    33   16   21 ar
    34   16   17 ar
    35   17   18 ar
    36   17   43 1
    37   18   19 ar
    38   18   44 1
    39   19   20 ar
    40   19   22 1
    41   20   21 ar
    42   20   45 1
    43   21   46 1
    44   22   23 2
    45   22   24 2
    46   22   25 1
    47   25   47 1
    48   25   48 1
    49   26   27 2
    50   26   28 am
    51   28   49 1
@<TRIPOS>MOLECULE
CHEMBL429142
   49    51     0     0     0
SMALL
USER_CHARGES

@<TRIPOS>ATOM
      1 C1         -0.8813    0.2246   -0.1783 C.3       1 <0>        -0.1552
      2 C2         -1.0083   -1.2836    0.0461 C.3       1 <0>        -0.0879
      3 C3         -0.4999   -2.0278   -1.1902 C.3       1 <0>        -0.1494
      4 C4         -0.1760   -1.6898    1.2640 C.3       1 <0>        -0.1632
      5 C5         -0.7528   -1.0525    2.5018 C.2       1 <0>         0.4005
      6 O1         -1.7332   -0.3432    2.4182 O.2       1 <0>        -0.4523
      7 C6         -0.1278   -1.2904    3.8097 C.ar      1 <0>        -0.1880
      8 C7          1.0088   -2.1050    3.9091 C.ar      1 <0>        -0.0427
      9 C8          1.5967   -2.3316    5.1190 C.ar      1 <0>        -0.1423
     10 C9          1.0754   -1.7561    6.2775 C.ar      1 <0>         0.1759
     11 C10        -0.0627   -0.9389    6.1872 C.ar      1 <0>        -0.0986
     12 C11        -0.6606   -0.7005    4.9606 C.ar      1 <0>        -0.0285
     13 C12        -0.3623   -0.4894    7.5676 C.2       1 <0>        -0.2791
     14 C13        -1.3805    0.3232    7.9747 C.2       1 <0>         0.2486
     15 N1         -2.1602    0.9520    7.0523 N.pl3     1 <0>        -0.6362
     16 C14        -3.2701    1.6942    7.4648 C.ar      1 <0>         0.2163
     17 C15        -3.5761    1.7962    8.8161 C.ar      1 <0>        -0.1897
     18 C16        -4.6737    2.5304    9.2203 C.ar      1 <0>         0.0234
     19 C17        -5.4680    3.1632    8.2817 C.ar      1 <0>        -0.7058
     20 C18        -5.1663    3.0638    6.9358 C.ar      1 <0>         0.0227
     21 C19        -4.0666    2.3363    6.5251 C.ar      1 <0>        -0.1797
     22 S1         -6.8682    4.0980    8.8018 S.o2      1 <0>         2.7042
     23 O2         -7.7613    4.1402    7.6974 O.2       1 <0>        -0.9624
     24 O3         -7.2498    3.5856   10.0711 O.2       1 <0>        -0.9624
     25 N2         -6.3534    5.6516    9.0539 N.pl3     1 <0>        -1.2503
     26 C20         0.6746   -1.1086    8.4008 C.2       1 <0>         0.5773
     27 O4          0.7879   -0.9899    9.6080 O.2       1 <0>        -0.5111
     28 N3          1.4773   -1.8292    7.6001 N.am      1 <0>        -0.6480
     29 H1          0.1642    0.4794   -0.3514 H         1 <0>         0.0502
     30 H2         -1.4743    0.5140   -1.0459 H         1 <0>         0.0547
     31 H3         -1.2435    0.7547    0.7025 H         1 <0>         0.0681
     32 H4         -2.0539   -1.5384    0.2192 H         1 <0>         0.0762
     33 H5          0.5457   -1.7729   -1.3633 H         1 <0>         0.0558
     34 H6         -0.5904   -3.1022   -1.0303 H         1 <0>         0.0554
     35 H7         -1.0928   -1.7384   -2.0579 H         1 <0>         0.0582
     36 H8         -0.1945   -2.7743    1.3714 H         1 <0>         0.1006
     37 H9          0.8527   -1.3556    1.1290 H         1 <0>         0.1008
     38 H10         1.4225   -2.5575    3.0200 H         1 <0>         0.1414
     39 H11         2.4720   -2.9614    5.1802 H         1 <0>         0.1362
     40 H12        -1.5334   -0.0678    4.8940 H         1 <0>         0.1251
     41 H13        -1.5678    0.4675    9.0285 H         1 <0>         0.1753
     42 H14        -1.9452    0.8848    6.1088 H         1 <0>         0.4180
     43 H15        -2.9566    1.3016    9.5496 H         1 <0>         0.1426
     44 H16        -4.9122    2.6101   10.2706 H         1 <0>         0.1518
     45 H17        -5.7887    3.5592    6.2054 H         1 <0>         0.1517
     46 H18        -3.8289    2.2627    5.4741 H         1 <0>         0.1420
     47 H19        -5.4231    5.8841    8.9078 H         1 <0>         0.4168
     48 H20        -6.9823    6.3292    9.3478 H         1 <0>         0.4218
     49 H21         2.2428   -2.3379    7.9102 H         1 <0>         0.4209
@<TRIPOS>BOND
     1    1    2 1
     2    1   29 1
     3    1   30 1
     4    1   31 1
     5    2    3 1
     6    2    4 1
     7    2   32 1
     8    3   33 1
     9    3   34 1
    10    3   35 1
    11    4    5 1
    12    4   36 1
    13    4   37 1
    14    5    6 2
    15    5    7 1
    16    7   12 ar
    17    7    8 ar
    18    8    9 ar
    19    8   38 1
    20    9   10 ar
    21    9   39 1
    22   10   28 1
    23   10   11 ar
    24   11   12 ar
    25   11   13 1
    26   12   40 1
    27   13   14 2
    28   13   26 1
    29   14   15 1
    30   14   41 1
    31   15   16 1
    32   15   42 1
    33   16   21 ar
    34   16   17 ar
    35   17   18 ar
    36   17   43 1
    37   18   19 ar
    38   18   44 1
    39   19   20 ar
    40   19   22 1
    41   20   21 ar
    42   20   45 1
    43   21   46 1
    44   22   23 2
    45   22   24 2
    46   22   25 1
    47   25   47 1
    48   25   48 1
    49   26   27 2
    50   26   28 am
    51   28   49 1
@<TRIPOS>MOLECULE
CHEMBL503917
   15    16     0     0     0
SMALL
USER_CHARGES

@<TRIPOS>ATOM
      1 C1         -0.0163    1.3529    0.0095 C.2       1 <0>        -0.2201
      2 C2          1.1943    2.0562    0.0017 C.2       1 <0>         0.1995
      3 N1          2.3361    1.4046   -0.0127 N.2       1 <0>        -0.4674
      4 C3          2.3625    0.0708   -0.0201 C.2       1 <0>         0.3144
      5 C4          3.4187   -0.8593   -0.0356 C.2       1 <0>        -0.1878
      6 C5          2.8379   -2.1393   -0.0372 C.2       1 <0>         0.1519
      7 N2          1.5365   -2.0104   -0.0239 N.2       1 <0>        -0.3029
      8 N3          1.2020   -0.6520   -0.0129 N.pl3     1 <0>        -0.3047
      9 C6          0.0021   -0.0041    0.0020 C.2       1 <0>         0.1754
     10 C7          4.8188   -0.5587   -0.0482 C.1       1 <0>         0.2970
     11 N4          5.9294   -0.3203   -0.0582 N.1       1 <0>        -0.4242
     12 H1         -0.9559    1.8853    0.0258 H         1 <0>         0.1770
     13 H2          1.1903    3.1362    0.0072 H         1 <0>         0.1890
     14 H3          3.3773   -3.0749   -0.0478 H         1 <0>         0.2134
     15 H4         -0.9216   -0.5636    0.0075 H         1 <0>         0.1894
@<TRIPOS>BOND
     1    1    9 2
     2    1    2 1
     3    1   12 1
     4    2    3 2
     5    2   13 1
     6    3    4 1
     7    4    8 1
     8    4    5 2
     9    5    6 1
    10    5   10 1
    11    6    7 2
    12    6   14 1
    13    7    8 1
    14    8    9 1
    15    9   15 1
    16   10   11 3
@<TRIPOS>MOLECULE
CHEMBL481562
   37    40     0     0     0
SMALL
USER_CHARGES

@<TRIPOS>ATOM
      1 C1         -0.0168    1.3898    0.0097 C.ar      1 <0>        -0.0695
      2 C2          1.1688    2.0941    0.0021 C.ar      1 <0>        -0.1450
      3 C3          2.3804    1.4164   -0.0135 C.ar      1 <0>         0.1181
      4 C4          2.4025    0.0282   -0.0212 C.ar      1 <0>        -0.1480
      5 C5          1.2202   -0.6817   -0.0133 C.ar      1 <0>        -0.0783
      6 C6          0.0021   -0.0041    0.0020 C.ar      1 <0>        -0.0732
      7 C7         -1.2712   -0.7645    0.0106 C.ar      1 <0>         0.0192
      8 C8         -1.4727   -1.7821   -0.9126 C.ar      1 <0>        -0.1001
      9 C9         -2.6663   -2.4921   -0.9009 C.ar      1 <0>         0.0821
     10 C10        -3.6551   -2.1672    0.0498 C.ar      1 <0>        -0.1057
     11 C11        -3.4383   -1.1442    0.9697 C.ar      1 <0>        -0.0065
     12 C12        -2.2595   -0.4552    0.9533 C.ar      1 <0>        -0.1010
     13 Br1        -1.9623    0.9290    2.2070 Br        1 <0>        -0.0289
     14 C13        -4.7518   -3.1031   -0.2316 C.2       1 <0>         0.0108
     15 N1         -4.3559   -3.8455   -1.2433 N.2       1 <0>        -0.1987
     16 N2         -3.1797   -3.5239   -1.6444 N.pl3     1 <0>        -0.4074
     17 H1         -2.7145   -3.9543   -2.3788 H         1 <0>         0.4522
     18 C14        -6.0400   -3.1933    0.4790 C.2       1 <0>         0.6115
     19 O1         -6.2781   -2.4406    1.4040 O.2       1 <0>        -0.5203
     20 N3         -6.9540   -4.1098    0.1035 N.am      1 <0>        -0.6886
     21 C15        -8.2344   -4.1995    0.8098 C.3       1 <0>         0.0763
     22 C16        -8.7525   -5.5962    1.1586 C.3       1 <0>        -0.1906
     23 C17        -9.4227   -4.7873    0.0462 C.3       1 <0>        -0.1866
     24 O2          3.5469    2.1131   -0.0218 O.3       1 <0>        -0.4997
     25 H2         -0.9590    1.9176    0.0260 H         1 <0>         0.1330
     26 H3          1.1548    3.1740    0.0081 H         1 <0>         0.1331
     27 H4          3.3465   -0.4962   -0.0337 H         1 <0>         0.1324
     28 H5          1.2381   -1.7615   -0.0196 H         1 <0>         0.1296
     29 H6         -0.7062   -2.0197   -1.6354 H         1 <0>         0.1430
     30 H7         -4.1989   -0.8989    1.6962 H         1 <0>         0.1532
     31 H8         -6.7640   -4.7102   -0.6344 H         1 <0>         0.4086
     32 H9         -8.4385   -3.3955    1.5169 H         1 <0>         0.1423
     33 H10        -8.1407   -6.4484    0.8626 H         1 <0>         0.0983
     34 H11        -9.2976   -5.7113    2.0955 H         1 <0>         0.1054
     35 H12       -10.4087   -4.3704    0.2512 H         1 <0>         0.1066
     36 H13        -9.2519   -5.1074   -0.9817 H         1 <0>         0.0988
     37 H14         3.8935    2.3103    0.8591 H         1 <0>         0.3938
@<TRIPOS>BOND
     1    1    6 ar
     2    1    2 ar
     3    1   25 1
     4    2    3 ar
     5    2   26 1
     6    3    4 ar
     7    3   24 1
     8    4    5 ar
     9    4   27 1
    10    5    6 ar
    11    5   28 1
    12    6    7 1
    13    7   12 ar
    14    7    8 ar
    15    8    9 ar
    16    8   29 1
    17    9   16 1
    18    9   10 ar
    19   10   11 ar
    20   10   14 1
    21   11   12 ar
    22   11   30 1
    23   12   13 1
    24   14   15 2
    25   14   18 1
    26   15   16 1
    27   16   17 1
    28   18   19 2
    29   18   20 am
    30   20   21 1
    31   20   31 1
    32   21   23 1
    33   21   22 1
    34   21   32 1
    35   22   23 1
    36   22   33 1
    37   22   34 1
    38   23   35 1
    39   23   36 1
    40   24   37 1
@<TRIPOS>MOLECULE
CHEMBL162
   62    69     0     0     0
SMALL
USER_CHARGES

@<TRIPOS>ATOM
      1 C1         -0.1276    1.5938   -0.2902 C.3       1 <0>        -0.1687
      2 C2         -0.0844    0.0680   -0.1855 C.3       1 <0>         0.3345
      3 C3          0.5692   -0.4497   -1.4608 C.3       1 <0>         0.0405
      4 H1          1.4795    0.1163   -1.6584 H         1 <0>         0.1372
      5 C4          0.9165   -1.9328   -1.2885 C.3       1 <0>        -0.0062
      6 H2          1.3941   -2.3067   -2.1942 H         1 <0>         0.1555
      7 C5          1.8808   -2.0612   -0.1039 C.3       1 <0>        -0.1828
      8 C6          1.2106   -1.5234    1.1545 C.3       1 <0>         0.3001
      9 O1          0.6584   -0.2480    0.9698 O.3       1 <0>        -0.3232
     10 N1          0.2248   -2.4800    1.6600 N.pl3     1 <0>        -0.5368
     11 C7          0.4774   -3.5588    2.4701 C.ar      1 <0>         0.1470
     12 C8          1.6719   -4.0282    3.0159 C.ar      1 <0>        -0.1521
     13 C9          1.6013   -5.1613    3.8083 C.ar      1 <0>        -0.0582
     14 C10         0.4065   -5.8141    4.0588 C.ar      1 <0>        -0.1457
     15 C11        -0.7928   -5.3694    3.5296 C.ar      1 <0>        -0.0281
     16 C12        -0.7420   -4.2270    2.7281 C.ar      1 <0>        -0.1133
     17 C13        -1.7834   -3.4873    2.0211 C.ar      1 <0>         0.0272
     18 C14        -1.1387   -2.4235    1.3862 C.ar      1 <0>         0.0375
     19 C15        -1.8766   -1.5121    0.6225 C.ar      1 <0>         0.0893
     20 N2         -1.4701   -0.3965   -0.1042 N.pl3     1 <0>        -0.5183
     21 C16        -2.5609    0.1893   -0.7020 C.ar      1 <0>         0.1620
     22 C17        -2.6555    1.3256   -1.5046 C.ar      1 <0>        -0.1301
     23 C18        -3.9158    1.6704   -1.9636 C.ar      1 <0>        -0.0737
     24 C19        -5.0430    0.9315   -1.6503 C.ar      1 <0>        -0.1357
     25 C20        -4.9749   -0.2010   -0.8555 C.ar      1 <0>        -0.0503
     26 C21        -3.7134   -0.5626   -0.3834 C.ar      1 <0>        -0.1044
     27 C22        -3.2655   -1.6685    0.4924 C.ar      1 <0>        -0.0362
     28 C23        -3.9045   -2.7331    1.1195 C.ar      1 <0>        -0.0289
     29 C24        -3.1819   -3.6452    1.8815 C.ar      1 <0>        -0.1255
     30 C25        -4.1160   -4.6505    2.4114 C.2       1 <0>         0.5633
     31 O2         -3.7988   -5.5888    3.1172 O.2       1 <0>        -0.5106
     32 N3         -5.3694   -4.3854    2.0058 N.am      1 <0>        -0.7162
     33 C26        -5.3459   -3.1769    1.1740 C.3       1 <0>         0.1359
     34 N4         -0.3065   -2.7008   -1.0194 N.4       1 <0>        -0.5253
     35 C27         0.0148   -4.1335   -0.9747 C.3       1 <0>        -0.0497
     36 O3         -0.3352   -0.2957   -2.5564 O.3       1 <0>        -0.3613
     37 C28         0.3074   -0.0892   -3.8159 C.3       1 <0>         0.0162
     38 H3          0.8308    2.0068    0.0247 H         1 <0>         0.0984
     39 H4         -0.3256    1.8817   -1.3227 H         1 <0>         0.1037
     40 H5         -0.9185    1.9799    0.3528 H         1 <0>         0.0921
     41 H6          2.1400   -3.1098    0.0419 H         1 <0>         0.1233
     42 H7          2.7852   -1.4878   -0.3076 H         1 <0>         0.1455
     43 H8          1.9835   -1.4379    1.9183 H         1 <0>         0.1550
     44 H9          2.6113   -3.5296    2.8282 H         1 <0>         0.1364
     45 H10         2.5093   -5.5494    4.2456 H         1 <0>         0.1359
     46 H11         0.4102   -6.6943    4.6846 H         1 <0>         0.1352
     47 H12        -1.7231   -5.8814    3.7271 H         1 <0>         0.1602
     48 H13        -1.7841    1.9115   -1.7569 H         1 <0>         0.1438
     49 H14        -4.0225    2.5459   -2.5869 H         1 <0>         0.1335
     50 H15        -6.0015    1.2460   -2.0361 H         1 <0>         0.1333
     51 H16        -5.8562   -0.7761   -0.6128 H         1 <0>         0.1416
     52 H17        -6.1577   -4.9060    2.2257 H         1 <0>         0.4348
     53 H18        -5.9609   -2.3989    1.6262 H         1 <0>         0.1115
     54 H19        -5.7062   -3.4047    0.1708 H         1 <0>         0.1104
     55 H20        -0.6946   -2.4153   -0.1328 H         1 <0>         0.4186
     56 H21         0.7414   -4.3184   -0.1836 H         1 <0>         0.1191
     57 H22        -0.8927   -4.7033   -0.7750 H         1 <0>         0.1256
     58 H23         0.4340   -4.4418   -1.9324 H         1 <0>         0.1255
     59 H24        -0.4469    0.0185   -4.5954 H         1 <0>         0.1100
     60 H25         0.9142    0.8152   -3.7703 H         1 <0>         0.0633
     61 H26         0.9451   -0.9435   -4.0429 H         1 <0>         0.0514
     62 H27        -0.9792   -2.5296   -1.7517 H         1 <0>         0.4274
@<TRIPOS>BOND
     1    1    2 1
     2    1   38 1
     3    1   39 1
     4    1   40 1
     5    2    9 1
     6    2   20 1
     7    2    3 1
     8    3    4 1
     9    3    5 1
    10    3   36 1
    11    5    6 1
    12    5    7 1
    13    5   34 1
    14    7    8 1
    15    7   41 1
    16    7   42 1
    17    8    9 1
    18    8   10 1
    19    8   43 1
    20   10   18 1
    21   10   11 1
    22   11   16 ar
    23   11   12 ar
    24   12   13 ar
    25   12   44 1
    26   13   14 ar
    27   13   45 1
    28   14   15 ar
    29   14   46 1
    30   15   16 ar
    31   15   47 1
    32   16   17 1
    33   17   29 ar
    34   17   18 ar
    35   18   19 ar
    36   19   27 ar
    37   19   20 1
    38   20   21 1
    39   21   26 ar
    40   21   22 ar
    41   22   23 ar
    42   22   48 1
    43   23   24 ar
    44   23   49 1
    45   24   25 ar
    46   24   50 1
    47   25   26 ar
    48   25   51 1
    49   26   27 1
    50   27   28 ar
    51   28   33 1
    52   28   29 ar
    53   29   30 1
    54   30   31 2
    55   30   32 am
    56   32   33 1
    57   32   52 1
    58   33   53 1
    59   33   54 1
    60   34   35 1
    61   34   55 1
    62   34   62 1
    63   35   56 1
    64   35   57 1
    65   35   58 1
    66   36   37 1
    67   37   59 1
    68   37   60 1
    69   37   61 1
@<TRIPOS>MOLECULE
CHEMBL162
   61    68     0     0     0
SMALL
USER_CHARGES

@<TRIPOS>ATOM
      1 C1         -0.0567    1.5513   -0.0894 C.3       1 <0>        -0.1681
      2 C2         -0.0278    0.0218   -0.0599 C.3       1 <0>         0.3623
      3 C3          0.5811   -0.4397   -1.3782 C.3       1 <0>         0.0679
      4 H1          1.4914    0.1262   -1.5761 H         1 <0>         0.0865
      5 C4          0.9165   -1.9328   -1.2885 C.3       1 <0>         0.0550
      6 H2          1.3622   -2.2669   -2.2254 H         1 <0>         0.0644
      7 C5          1.9146   -2.1282   -0.1417 C.3       1 <0>        -0.1713
      8 C6          1.2889   -1.6457    1.1613 C.3       1 <0>         0.3303
      9 O1          0.7459   -0.3574    1.0554 O.3       1 <0>        -0.3432
     10 N1          0.3079   -2.6158    1.6500 N.pl3     1 <0>        -0.5147
     11 C7          0.5725   -3.7353    2.3988 C.ar      1 <0>         0.1480
     12 C8          1.7775   -4.2425    2.8844 C.ar      1 <0>        -0.1567
     13 C9          1.7179   -5.4120    3.6229 C.ar      1 <0>        -0.0771
     14 C10         0.5239   -6.0644    3.8782 C.ar      1 <0>        -0.1623
     15 C11        -0.6857   -5.5826    3.4081 C.ar      1 <0>        -0.0380
     16 C12        -0.6461   -4.4031    2.6615 C.ar      1 <0>        -0.1052
     17 C13        -1.6998   -3.6196    2.0235 C.ar      1 <0>        -0.0146
     18 C14        -1.0625   -2.5326    1.4212 C.ar      1 <0>         0.1328
     19 C15        -1.8127   -1.5778    0.7254 C.ar      1 <0>         0.2189
     20 N2         -1.4156   -0.4323    0.0413 N.pl3     1 <0>        -0.4798
     21 C16        -2.5171    0.1927   -0.4937 C.ar      1 <0>         0.1719
     22 C17        -2.6230    1.3676   -1.2371 C.ar      1 <0>        -0.1371
     23 C18        -3.8926    1.7468   -1.6400 C.ar      1 <0>        -0.0918
     24 C19        -5.0181    1.0048   -1.3284 C.ar      1 <0>        -0.1543
     25 C20        -4.9390   -0.1657   -0.5916 C.ar      1 <0>        -0.0609
     26 C21        -3.6680   -0.5623   -0.1765 C.ar      1 <0>        -0.0961
     27 C22        -3.2066   -1.7140    0.6307 C.ar      1 <0>        -0.0806
     28 C23        -3.8384   -2.8014    1.2249 C.ar      1 <0>        -0.0396
     29 C24        -3.1037   -3.7566    1.9194 C.ar      1 <0>        -0.1488
     30 C25        -4.0327   -4.7771    2.4285 C.2       1 <0>         0.5678
     31 O2         -3.7051   -5.7517    3.0781 O.2       1 <0>        -0.5303
     32 N3         -5.2947   -4.4802    2.0748 N.am      1 <0>        -0.7263
     33 C26        -5.2825   -3.2330    1.3021 C.3       1 <0>         0.1443
     34 N4         -0.3065   -2.7008   -1.0194 N.3       1 <0>        -0.6725
     35 C27        -0.9816   -3.0711   -2.2704 C.3       1 <0>         0.0321
     36 O3         -0.3541   -0.2236   -2.4368 O.3       1 <0>        -0.3500
     37 C28         0.2525    0.0376   -3.7040 C.3       1 <0>         0.0254
     38 H3          0.9143    1.9390    0.2190 H         1 <0>         0.0847
     39 H4         -0.2789    1.8910   -1.1010 H         1 <0>         0.0945
     40 H5         -0.8258    1.9134    0.5927 H         1 <0>         0.0811
     41 H6          2.1661   -3.1852   -0.0547 H         1 <0>         0.0955
     42 H7          2.8189   -1.5546   -0.3450 H         1 <0>         0.1024
     43 H8          2.0854   -1.6051    1.9042 H         1 <0>         0.1256
     44 H9          2.7165   -3.7447    2.6923 H         1 <0>         0.1264
     45 H10         2.6343   -5.8299    4.0129 H         1 <0>         0.1227
     46 H11         0.5364   -6.9739    4.4603 H         1 <0>         0.1222
     47 H12        -1.6153   -6.0942    3.6091 H         1 <0>         0.1517
     48 H13        -1.7529    1.9564   -1.4875 H         1 <0>         0.1345
     49 H14        -4.0081    2.6526   -2.2167 H         1 <0>         0.1197
     50 H15        -5.9842    1.3471   -1.6689 H         1 <0>         0.1193
     51 H16        -5.8191   -0.7431   -0.3501 H         1 <0>         0.1299
     52 H17        -6.0819   -5.0031    2.2935 H         1 <0>         0.4244
     53 H18        -5.8747   -2.4718    1.8101 H         1 <0>         0.0969
     54 H19        -5.6755   -3.4081    0.3006 H         1 <0>         0.0963
     55 H20        -0.1054   -3.5172   -0.4616 H         1 <0>         0.3444
     56 H21        -1.8838   -3.6387   -2.0422 H         1 <0>         0.0645
     57 H22        -1.2495   -2.1685   -2.8197 H         1 <0>         0.0818
     58 H23        -0.3126   -3.6808   -2.8776 H         1 <0>         0.0150
     59 H24        -0.5237    0.1905   -4.4538 H         1 <0>         0.0929
     60 H25         0.8707    0.9325   -3.6333 H         1 <0>         0.0448
     61 H26         0.8732   -0.8111   -3.9915 H         1 <0>         0.0400
@<TRIPOS>BOND
     1    1    2 1
     2    1   38 1
     3    1   39 1
     4    1   40 1
     5    2    9 1
     6    2   20 1
     7    2    3 1
     8    3    4 1
     9    3    5 1
    10    3   36 1
    11    5    6 1
    12    5    7 1
    13    5   34 1
    14    7    8 1
    15    7   41 1
    16    7   42 1
    17    8    9 1
    18    8   10 1
    19    8   43 1
    20   10   18 1
    21   10   11 1
    22   11   16 ar
    23   11   12 ar
    24   12   13 ar
    25   12   44 1
    26   13   14 ar
    27   13   45 1
    28   14   15 ar
    29   14   46 1
    30   15   16 ar
    31   15   47 1
    32   16   17 1
    33   17   29 ar
    34   17   18 ar
    35   18   19 ar
    36   19   27 ar
    37   19   20 1
    38   20   21 1
    39   21   26 ar
    40   21   22 ar
    41   22   23 ar
    42   22   48 1
    43   23   24 ar
    44   23   49 1
    45   24   25 ar
    46   24   50 1
    47   25   26 ar
    48   25   51 1
    49   26   27 1
    50   27   28 ar
    51   28   33 1
    52   28   29 ar
    53   29   30 1
    54   30   31 2
    55   30   32 am
    56   32   33 1
    57   32   52 1
    58   33   53 1
    59   33   54 1
    60   34   35 1
    61   34   55 1
    62   35   56 1
    63   35   57 1
    64   35   58 1
    65   36   37 1
    66   37   59 1
    67   37   60 1
    68   37   61 1
@<TRIPOS>MOLECULE
CHEMBL186952
   38    41     0     0     0
SMALL
USER_CHARGES

@<TRIPOS>ATOM
      1 C1          0.0005    1.3993    0.0142 C.ar      1 <0>        -0.0406
      2 C2          0.5822    1.0661   -1.1958 C.ar      1 <0>        -0.1616
      3 C3          1.7885    0.3924   -1.2250 C.ar      1 <0>         0.1641
      4 C4          2.4218    0.0473   -0.0252 C.ar      1 <0>        -0.2212
      5 C5          1.8257    0.3886    1.1946 C.ar      1 <0>         0.1638
      6 C6          0.6192    1.0623    1.2047 C.ar      1 <0>        -0.1614
      7 F1          2.4280    0.0601    2.3584 F         1 <0>        -0.1196
      8 C7          3.7091   -0.6722   -0.0462 C.2       1 <0>         0.4640
      9 O1          4.7505   -0.0525   -0.1501 O.2       1 <0>        -0.4198
     10 C8          3.7336   -2.1434    0.0590 C.2       1 <0>        -0.1952
     11 C9          2.5231   -2.8769    0.0619 C.2       1 <0>        -0.0479
     12 C10         2.5642   -4.2315    0.1590 C.2       1 <0>        -0.0953
     13 C11         3.8081   -4.8869    0.2553 C.2       1 <0>         0.2953
     14 N1          4.1149   -6.1778    0.3586 N.2       1 <0>        -0.5247
     15 C12         5.4343   -6.3270    0.4224 C.2       1 <0>         0.4186
     16 C13         6.0149   -5.0593    0.3565 C.2       1 <0>        -0.2453
     17 N2          4.9652   -4.1574    0.2506 N.pl3     1 <0>        -0.3221
     18 C14         4.9367   -2.8123    0.1494 C.2       1 <0>         0.1530
     19 C15         7.3935   -4.7554    0.3907 C.2       1 <0>         0.5313
     20 O2          7.9278   -4.4625    1.4483 O.2       1 <0>        -0.4232
     21 C16         8.1848   -4.7919   -0.8467 C.2       1 <0>        -0.2883
     22 C17         9.5498   -4.6244   -1.0157 C.2       1 <0>        -0.0630
     23 C18        10.0070   -4.7142   -2.3099 C.2       1 <0>        -0.1897
     24 C19         9.1202   -4.9533   -3.3064 C.2       1 <0>        -0.2198
     25 S1          7.6399   -5.0709   -2.5210 S.3       1 <0>         0.2366
     26 N3          6.1143   -7.5303    0.5353 N.pl3     1 <0>        -0.8283
     27 F2          2.3546    0.0675   -2.4079 F         1 <0>        -0.1199
     28 H1         -0.9401    1.9298    0.0295 H         1 <0>         0.1523
     29 H2          0.0920    1.3328   -2.1204 H         1 <0>         0.1528
     30 H3          0.1578    1.3264    2.1448 H         1 <0>         0.1528
     31 H4          1.5753   -2.3644   -0.0121 H         1 <0>         0.1512
     32 H5          1.6480   -4.8032    0.1626 H         1 <0>         0.1658
     33 H6          5.8618   -2.2551    0.1432 H         1 <0>         0.1762
     34 H7         10.2125   -4.4352   -0.1842 H         1 <0>         0.1502
     35 H8         11.0579   -4.5954   -2.5289 H         1 <0>         0.1401
     36 H9          9.3201   -5.0504   -4.3633 H         1 <0>         0.1911
     37 H10         5.6265   -8.3681    0.5010 H         1 <0>         0.4148
     38 H11         7.0776   -7.5343    0.6485 H         1 <0>         0.4128
@<TRIPOS>BOND
     1    1    6 ar
     2    1    2 ar
     3    1   28 1
     4    2    3 ar
     5    2   29 1
     6    3    4 ar
     7    3   27 1
     8    4    5 ar
     9    4    8 1
    10    5    6 ar
    11    5    7 1
    12    6   30 1
    13    8    9 2
    14    8   10 1
    15   10   18 2
    16   10   11 1
    17   11   12 2
    18   11   31 1
    19   12   13 1
    20   12   32 1
    21   13   17 1
    22   13   14 2
    23   14   15 1
    24   15   16 2
    25   15   26 1
    26   16   17 1
    27   16   19 1
    28   17   18 1
    29   18   33 1
    30   19   20 2
    31   19   21 1
    32   21   25 1
    33   21   22 2
    34   22   23 1
    35   22   34 1
    36   23   24 2
    37   23   35 1
    38   24   25 1
    39   24   36 1
    40   26   37 1
    41   26   38 1
@<TRIPOS>MOLECULE
CHEMBL393929
   36    39     0     0     0
SMALL
USER_CHARGES

@<TRIPOS>ATOM
      1 C1          0.0056    1.2263   -0.3202 C.ar      1 <0>        -0.1817
      2 C2          1.1551    1.9122   -0.0472 C.ar      1 <0>        -0.0569
      3 C3          2.3857    1.2751   -0.3017 C.ar      1 <0>        -0.0987
      4 C4          3.6031    1.9191   -0.0448 C.ar      1 <0>        -0.0919
      5 C5          4.7946    1.2551   -0.3096 C.ar      1 <0>        -0.0368
      6 C6          4.7786   -0.0539   -0.8321 C.ar      1 <0>        -0.0899
      7 C7          3.6073   -0.6880   -1.0855 C.ar      1 <0>        -0.0899
      8 C8          2.3825   -0.0424   -0.8270 C.ar      1 <0>         0.1243
      9 N1          1.2211   -0.6557   -1.0715 N.ar      1 <0>        -0.4729
     10 C9          0.0737   -0.0658   -0.8354 C.ar      1 <0>         0.1214
     11 C10         6.0771    1.9207   -0.0441 C.2       1 <0>        -0.0486
     12 C11         7.2156    1.1888    0.0438 C.2       1 <0>        -0.1607
     13 C12         8.6252    1.6347    0.1606 C.2       1 <0>         0.5283
     14 O1          8.9262    2.8170    0.1922 O.2       1 <0>        -0.5550
     15 N2          9.5324    0.6856    0.2286 N.2       1 <0>        -0.7275
     16 C13         9.2193   -0.6001    0.1957 C.2       1 <0>         0.4127
     17 S1          7.4385   -0.5857    0.0596 S.3       1 <0>        -0.1221
     18 N3         10.0580   -1.6807    0.2574 N.2       1 <0>        -0.5879
     19 C14        11.5042   -1.4795    0.3763 C.3       1 <0>         0.1546
     20 C15        12.1952   -2.8179    0.4244 C.2       1 <0>        -0.0730
     21 C16        12.6769   -3.5671   -0.5974 C.2       1 <0>        -0.1772
     22 C17        13.2811   -4.7776   -0.3143 C.2       1 <0>        -0.1451
     23 C18        13.3740   -5.1798    0.9768 C.2       1 <0>        -0.2002
     24 S2         12.5988   -3.8245    1.8425 S.3       1 <0>         0.0213
     25 H1         -0.9546    1.6837   -0.1326 H         1 <0>         0.1342
     26 H2          1.1215    2.9150    0.3522 H         1 <0>         0.1372
     27 H3          3.6154    2.9224    0.3549 H         1 <0>         0.1346
     28 H4          5.7120   -0.5584   -1.0337 H         1 <0>         0.1508
     29 H5          3.6135   -1.6908   -1.4866 H         1 <0>         0.1370
     30 H6         -0.8430   -0.5964   -1.0462 H         1 <0>         0.1555
     31 H7          6.1134    2.9928    0.0810 H         1 <0>         0.1472
     32 H8         11.8645   -0.9153   -0.4839 H         1 <0>         0.0665
     33 H9         11.7202   -0.9261    1.2901 H         1 <0>         0.0573
     34 H10        12.5896   -3.2235   -1.6176 H         1 <0>         0.1285
     35 H11        13.6729   -5.3940   -1.1099 H         1 <0>         0.1260
     36 H12        13.8081   -6.0837    1.3781 H         1 <0>         0.1783
@<TRIPOS>BOND
     1    1   10 ar
     2    1    2 ar
     3    1   25 1
     4    2    3 ar
     5    2   26 1
     6    3    8 ar
     7    3    4 ar
     8    4    5 ar
     9    4   27 1
    10    5    6 ar
    11    5   11 1
    12    6    7 ar
    13    6   28 1
    14    7    8 ar
    15    7   29 1
    16    8    9 ar
    17    9   10 ar
    18   10   30 1
    19   11   12 2
    20   11   31 1
    21   12   17 1
    22   12   13 1
    23   13   14 2
    24   13   15 1
    25   15   16 2
    26   16   17 1
    27   16   18 1
    28   18   19 1
    29   19   20 1
    30   19   32 1
    31   19   33 1
    32   20   24 1
    33   20   21 2
    34   21   22 1
    35   21   34 1
    36   22   23 2
    37   22   35 1
    38   23   24 1
    39   23   36 1
@<TRIPOS>MOLECULE
CHEMBL393929
   37    40     0     0     0
SMALL
USER_CHARGES

@<TRIPOS>ATOM
      1 C1          0.0056    1.2263   -0.3202 C.ar      1 <0>        -0.1751
      2 C2          1.1551    1.9122   -0.0472 C.ar      1 <0>        -0.0498
      3 C3          2.3857    1.2751   -0.3017 C.ar      1 <0>        -0.1098
      4 C4          3.6031    1.9191   -0.0448 C.ar      1 <0>        -0.0505
      5 C5          4.7946    1.2551   -0.3096 C.ar      1 <0>        -0.0868
      6 C6          4.7786   -0.0539   -0.8321 C.ar      1 <0>        -0.0873
      7 C7          3.6073   -0.6880   -1.0855 C.ar      1 <0>        -0.0837
      8 C8          2.3825   -0.0424   -0.8270 C.ar      1 <0>         0.1399
      9 N1          1.2211   -0.6557   -1.0715 N.ar      1 <0>        -0.4764
     10 C9          0.0737   -0.0658   -0.8354 C.ar      1 <0>         0.1416
     11 C10         6.0771    1.9207   -0.0441 C.2       1 <0>         0.0523
     12 C11         7.2156    1.1888    0.0438 C.2       1 <0>        -0.2272
     13 C12         8.6252    1.6347    0.1606 C.2       1 <0>         0.5507
     14 O1          8.9262    2.8170    0.1922 O.2       1 <0>        -0.4598
     15 N2          9.5324    0.6856    0.2286 N.2       1 <0>        -0.6606
     16 C13         9.2193   -0.6001    0.1957 C.2       1 <0>         0.4796
     17 S1          7.4385   -0.5857    0.0596 S.3       1 <0>        -0.0412
     18 N3         10.0580   -1.6807    0.2574 N.pl3     1 <0>        -0.6348
     19 C14        11.5042   -1.4795    0.3763 C.3       1 <0>         0.2085
     20 C15        12.1952   -2.8179    0.4244 C.2       1 <0>        -0.1945
     21 C16        12.6769   -3.5671   -0.5974 C.2       1 <0>        -0.1169
     22 C17        13.2811   -4.7776   -0.3143 C.2       1 <0>        -0.1677
     23 C18        13.3740   -5.1798    0.9768 C.2       1 <0>        -0.1536
     24 S2         12.5988   -3.8245    1.8425 S.3       1 <0>         0.0625
     25 H1         -0.9546    1.6837   -0.1326 H         1 <0>         0.1422
     26 H2          1.1215    2.9150    0.3522 H         1 <0>         0.1435
     27 H3          3.6154    2.9224    0.3549 H         1 <0>         0.1425
     28 H4          5.7120   -0.5584   -1.0337 H         1 <0>         0.1404
     29 H5          3.6135   -1.6908   -1.4866 H         1 <0>         0.1425
     30 H6         -0.8430   -0.5964   -1.0462 H         1 <0>         0.1633
     31 H7          6.1134    2.9928    0.0810 H         1 <0>         0.1635
     32 H8          9.6945   -2.5793    0.2224 H         1 <0>         0.4287
     33 H9         11.8645   -0.9153   -0.4839 H         1 <0>         0.1068
     34 H10        11.7202   -0.9261    1.2901 H         1 <0>         0.0993
     35 H11        12.5896   -3.2235   -1.6176 H         1 <0>         0.1383
     36 H12        13.6729   -5.3940   -1.1099 H         1 <0>         0.1393
     37 H13        13.8081   -6.0837    1.3781 H         1 <0>         0.1902
@<TRIPOS>BOND
     1    1   10 ar
     2    1    2 ar
     3    1   25 1
     4    2    3 ar
     5    2   26 1
     6    3    8 ar
     7    3    4 ar
     8    4    5 ar
     9    4   27 1
    10    5    6 ar
    11    5   11 1
    12    6    7 ar
    13    6   28 1
    14    7    8 ar
    15    7   29 1
    16    8    9 ar
    17    9   10 ar
    18   10   30 1
    19   11   12 2
    20   11   31 1
    21   12   17 1
    22   12   13 1
    23   13   14 2
    24   13   15 1
    25   15   16 2
    26   16   17 1
    27   16   18 1
    28   18   19 1
    29   18   32 1
    30   19   20 1
    31   19   33 1
    32   19   34 1
    33   20   24 1
    34   20   21 2
    35   21   22 1
    36   21   35 1
    37   22   23 2
    38   22   36 1
    39   23   24 1
    40   23   37 1
@<TRIPOS>MOLECULE
CHEMBL260163
   37    40     0     0     0
SMALL
USER_CHARGES

@<TRIPOS>ATOM
      1 C1         -0.0168    1.3899    0.0097 C.ar      1 <0>        -0.0863
      2 C2          1.1687    2.0941    0.0021 C.ar      1 <0>        -0.1438
      3 C3          2.3804    1.4164   -0.0131 C.ar      1 <0>         0.1117
      4 C4          2.4025    0.0282   -0.0212 C.ar      1 <0>        -0.1439
      5 C5          1.2203   -0.6817   -0.0137 C.ar      1 <0>        -0.0890
      6 C6          0.0021   -0.0041    0.0020 C.ar      1 <0>        -0.0607
      7 C7         -1.2712   -0.7645    0.0106 C.ar      1 <0>         0.0139
      8 C8         -2.4920   -0.0782    0.0206 C.ar      1 <0>        -0.1502
      9 C9         -3.6697   -0.7625    0.0290 C.ar      1 <0>        -0.0342
     10 C10        -3.6648   -2.1620    0.0272 C.ar      1 <0>        -0.1824
     11 C11        -2.4424   -2.8614    0.0166 C.ar      1 <0>         0.1499
     12 C12        -1.2461   -2.1518    0.0029 C.ar      1 <0>        -0.1381
     13 N1         -2.7497   -4.1980    0.0174 N.pl3     1 <0>        -0.5038
     14 H1         -2.1053   -4.9229    0.0116 H         1 <0>         0.4446
     15 N2         -4.1399   -4.3495    0.0281 N.2       1 <0>        -0.2327
     16 C13        -4.7182   -3.1778    0.0342 C.2       1 <0>         0.3153
     17 N3         -6.0968   -2.9376    0.0453 N.am      1 <0>        -0.6314
     18 C14        -6.9610   -3.9718    0.0508 C.2       1 <0>         0.5364
     19 O1         -6.5439   -5.1108    0.0461 O.2       1 <0>        -0.4863
     20 C15        -8.4456   -3.7132    0.0628 C.3       1 <0>        -0.1961
     21 C16        -9.2165   -4.0809    1.3322 C.3       1 <0>        -0.1498
     22 C17        -9.3745   -4.9289    0.0686 C.3       1 <0>        -0.1438
     23 O2          3.5469    2.1131   -0.0205 O.3       1 <0>        -0.4994
     24 H2         -0.9590    1.9176    0.0260 H         1 <0>         0.1336
     25 H3          1.1548    3.1740    0.0077 H         1 <0>         0.1329
     26 H4          3.3465   -0.4962   -0.0337 H         1 <0>         0.1323
     27 H5          1.2381   -1.7615   -0.0204 H         1 <0>         0.1310
     28 H6         -2.4997    1.0018    0.0221 H         1 <0>         0.1331
     29 H7         -4.6067   -0.2255    0.0374 H         1 <0>         0.1296
     30 H8         -0.3029   -2.6777   -0.0093 H         1 <0>         0.1332
     31 H9         -6.4304   -2.0268    0.0491 H         1 <0>         0.4232
     32 H10        -8.7737   -2.8317   -0.4881 H         1 <0>         0.1301
     33 H11        -8.6499   -4.5099    2.1587 H         1 <0>         0.1011
     34 H12       -10.0520   -3.4412    1.6168 H         1 <0>         0.1091
     35 H13       -10.3139   -4.8471   -0.4782 H         1 <0>         0.1077
     36 H14        -8.9118   -5.9158    0.0637 H         1 <0>         0.1098
     37 H15         3.8930    2.3100    0.8607 H         1 <0>         0.3933
@<TRIPOS>BOND
     1    1    6 ar
     2    1    2 ar
     3    1   24 1
     4    2    3 ar
     5    2   25 1
     6    3    4 ar
     7    3   23 1
     8    4    5 ar
     9    4   26 1
    10    5    6 ar
    11    5   27 1
    12    6    7 1
    13    7   12 ar
    14    7    8 ar
    15    8    9 ar
    16    8   28 1
    17    9   10 ar
    18    9   29 1
    19   10   16 1
    20   10   11 ar
    21   11   12 ar
    22   11   13 1
    23   12   30 1
    24   13   14 1
    25   13   15 1
    26   15   16 2
    27   16   17 1
    28   17   18 am
    29   17   31 1
    30   18   19 2
    31   18   20 1
    32   20   22 1
    33   20   21 1
    34   20   32 1
    35   21   22 1
    36   21   33 1
    37   21   34 1
    38   22   35 1
    39   22   36 1
    40   23   37 1
@<TRIPOS>MOLECULE
CHEMBL187256
   39    42     0     0     0
SMALL
USER_CHARGES

@<TRIPOS>ATOM
      1 C1          0.1544    1.3799    0.6418 C.ar      1 <0>        -0.0728
      2 C2          1.1481    2.1068    0.0597 C.ar      1 <0>        -0.1127
      3 C3          2.2149    1.4541   -0.5806 C.ar      1 <0>         0.1449
      4 C4          2.2411    0.0379   -0.6110 C.ar      1 <0>        -0.1160
      5 C5          3.3096   -0.6116   -1.2524 C.ar      1 <0>        -0.0615
      6 C6          4.2839    0.1585   -1.8230 C.ar      1 <0>        -0.1733
      7 C7          4.1989    1.5469   -1.7580 C.ar      1 <0>         0.1339
      8 N1          3.2001    2.1494   -1.1590 N.ar      1 <0>        -0.4696
      9 C8          1.1994   -0.6907   -0.0005 C.ar      1 <0>         0.1786
     10 C9          0.1708   -0.0108    0.6174 C.ar      1 <0>        -0.1298
     11 N2          1.2095   -2.0856   -0.0209 N.am      1 <0>        -0.6718
     12 C10         0.0533   -2.7696    0.0882 C.2       1 <0>         0.6996
     13 O1         -1.0065   -2.1738    0.1016 O.2       1 <0>        -0.5004
     14 N3          0.0719   -4.1139    0.1825 N.am      1 <0>        -0.6264
     15 C11        -1.1205   -4.8192    0.2951 C.2       1 <0>         0.2760
     16 N4         -2.3489   -4.3494    0.3204 N.2       1 <0>        -0.5129
     17 C12        -3.3866   -5.1582    0.4327 C.2       1 <0>         0.0610
     18 C13        -3.1264   -6.4856    0.5199 C.2       1 <0>        -0.1932
     19 S1         -1.3436   -6.4823    0.4246 S.3       1 <0>         0.1212
     20 C14        -4.0797   -7.6450    0.6544 C.3       1 <0>        -0.0211
     21 C15        -3.5630   -8.7637    1.5744 C.3       1 <0>        -0.1349
     22 C16        -4.1479   -9.7605    0.5600 C.3       1 <0>        -0.1424
     23 C17        -3.9848   -8.6576   -0.4991 C.3       1 <0>        -0.1335
     24 H1         -0.6585    1.8922    1.1348 H         1 <0>         0.1363
     25 H2          1.1160    3.1859    0.0901 H         1 <0>         0.1382
     26 H3          3.3597   -1.6897   -1.2930 H         1 <0>         0.1313
     27 H4          5.1190   -0.3091   -2.3234 H         1 <0>         0.1399
     28 H5          4.9758    2.1432   -2.2132 H         1 <0>         0.1620
     29 H6         -0.6295   -0.5634    1.0869 H         1 <0>         0.1536
     30 H7          2.0486   -2.5633   -0.1136 H         1 <0>         0.4082
     31 H8          0.9174   -4.5892    0.1719 H         1 <0>         0.4234
     32 H9         -4.3976   -4.7790    0.4544 H         1 <0>         0.1753
     33 H10        -5.0994   -7.3310    0.8770 H         1 <0>         0.1169
     34 H11        -2.4761   -8.8021    1.6473 H         1 <0>         0.0815
     35 H12        -4.0546   -8.7913    2.5469 H         1 <0>         0.0755
     36 H13        -3.5136  -10.6298    0.3864 H         1 <0>         0.0721
     37 H14        -5.1865  -10.0259    0.7577 H         1 <0>         0.0854
     38 H15        -4.8170   -8.5994   -1.2007 H         1 <0>         0.0749
     39 H16        -3.0133   -8.6668   -0.9932 H         1 <0>         0.0823
@<TRIPOS>BOND
     1    1   10 ar
     2    1    2 ar
     3    1   24 1
     4    2    3 ar
     5    2   25 1
     6    3    8 ar
     7    3    4 ar
     8    4    5 ar
     9    4    9 ar
    10    5    6 ar
    11    5   26 1
    12    6    7 ar
    13    6   27 1
    14    7    8 ar
    15    7   28 1
    16    9   10 ar
    17    9   11 1
    18   10   29 1
    19   11   12 am
    20   11   30 1
    21   12   13 2
    22   12   14 am
    23   14   15 1
    24   14   31 1
    25   15   19 1
    26   15   16 2
    27   16   17 1
    28   17   18 2
    29   17   32 1
    30   18   19 1
    31   18   20 1
    32   20   23 1
    33   20   21 1
    34   20   33 1
    35   21   22 1
    36   21   34 1
    37   21   35 1
    38   22   23 1
    39   22   36 1
    40   22   37 1
    41   23   38 1
    42   23   39 1
@<TRIPOS>MOLECULE
CHEMBL361862
   39    42     0     0     0
SMALL
USER_CHARGES

@<TRIPOS>ATOM
      1 C1          0.6619    0.2348   -1.1964 C.ar      1 <0>        -0.1457
      2 C2          1.8471    0.9438   -1.2011 C.ar      1 <0>        -0.0004
      3 C3          2.3770    1.4155   -0.0141 C.ar      1 <0>        -0.6786
      4 C4          1.7226    1.1789    1.1810 C.ar      1 <0>         0.0048
      5 C5          0.5373    0.4703    1.1925 C.ar      1 <0>        -0.1260
      6 C6          0.0021   -0.0041    0.0020 C.ar      1 <0>         0.2088
      7 N1         -1.2001   -0.7222    0.0101 N.pl3     1 <0>        -0.3045
      8 C7         -1.4590   -1.8432   -0.6882 C.2       1 <0>         0.1835
      9 C8         -2.7379   -2.2587   -0.3787 C.2       1 <0>        -0.1878
     10 C9         -3.2727   -1.3220    0.5116 C.2       1 <0>         0.0561
     11 N2         -2.3498   -0.4042    0.7536 N.2       1 <0>        -0.2577
     12 C10        -4.6320   -1.3549    1.0884 C.2       1 <0>         0.6070
     13 O1         -5.3948   -2.2553    0.7960 O.2       1 <0>        -0.5215
     14 N3         -5.0268   -0.3868    1.9389 N.am      1 <0>        -0.8376
     15 C11        -3.3425   -3.5231   -0.9249 C.3       1 <0>        -0.0363
     16 C12        -2.8033   -3.8420   -2.3207 C.3       1 <0>        -0.0612
     17 C13        -1.3202   -3.6034   -2.4019 C.2       1 <0>         0.1383
     18 C14        -0.6731   -2.6423   -1.6482 C.2       1 <0>        -0.2134
     19 C15         0.6737   -2.6556   -1.9917 C.2       1 <0>         0.0832
     20 N4          0.8482   -3.5945   -2.8917 N.2       1 <0>        -0.2839
     21 N5         -0.3894   -4.2043   -3.1514 N.pl3     1 <0>        -0.4471
     22 H1         -0.5432   -4.9364   -3.7688 H         1 <0>         0.4461
     23 S1          3.8893    2.3196   -0.0243 S.o2      1 <0>         2.7035
     24 O2          4.4543    2.1807    1.2721 O.2       1 <0>        -0.9578
     25 O3          4.5839    1.9359   -1.2031 O.2       1 <0>        -0.9549
     26 N6          3.5021    3.9197   -0.2028 N.pl3     1 <0>        -1.2469
     27 H2          0.2463   -0.1295   -2.1243 H         1 <0>         0.1457
     28 H3          2.3609    1.1296   -2.1327 H         1 <0>         0.1568
     29 H4          2.1392    1.5484    2.1064 H         1 <0>         0.1555
     30 H5          0.0271    0.2852    2.1262 H         1 <0>         0.1468
     31 H6         -4.4182    0.3315    2.1723 H         1 <0>         0.4090
     32 H7         -5.9195   -0.4084    2.3177 H         1 <0>         0.4104
     33 H8         -3.1071   -4.3495   -0.2543 H         1 <0>         0.0793
     34 H9         -4.4249   -3.4064   -0.9789 H         1 <0>         0.1053
     35 H10        -3.0099   -4.8868   -2.5528 H         1 <0>         0.0941
     36 H11        -3.3072   -3.2090   -3.0511 H         1 <0>         0.0981
     37 H12         1.4395   -2.0086   -1.5901 H         1 <0>         0.1874
     38 H13         4.0731    4.6028    0.1822 H         1 <0>         0.4236
     39 H14         2.7042    4.1739   -0.6924 H         1 <0>         0.4179
@<TRIPOS>BOND
     1    1    6 ar
     2    1    2 ar
     3    1   27 1
     4    2    3 ar
     5    2   28 1
     6    3    4 ar
     7    3   23 1
     8    4    5 ar
     9    4   29 1
    10    5    6 ar
    11    5   30 1
    12    6    7 1
    13    7   11 1
    14    7    8 1
    15    8   18 1
    16    8    9 2
    17    9   10 1
    18    9   15 1
    19   10   11 2
    20   10   12 1
    21   12   13 2
    22   12   14 am
    23   14   31 1
    24   14   32 1
    25   15   16 1
    26   15   33 1
    27   15   34 1
    28   16   17 1
    29   16   35 1
    30   16   36 1
    31   17   21 1
    32   17   18 2
    33   18   19 1
    34   19   20 2
    35   19   37 1
    36   20   21 1
    37   21   22 1
    38   23   24 2
    39   23   25 2
    40   23   26 1
    41   26   38 1
    42   26   39 1
@<TRIPOS>MOLECULE
CHEMBL361862
   39    42     0     0     0
SMALL
USER_CHARGES

@<TRIPOS>ATOM
      1 C1          0.6615    0.2354   -1.1965 C.ar      1 <0>        -0.1515
      2 C2          1.8468    0.9443   -1.2011 C.ar      1 <0>        -0.0014
      3 C3          2.3772    1.4152   -0.0140 C.ar      1 <0>        -0.6797
      4 C4          1.7230    1.1784    1.1811 C.ar      1 <0>         0.0062
      5 C5          0.5372    0.4705    1.1924 C.ar      1 <0>        -0.1260
      6 C6          0.0021   -0.0041    0.0020 C.ar      1 <0>         0.2108
      7 N1         -1.2001   -0.7222    0.0101 N.pl3     1 <0>        -0.3072
      8 C7         -1.4592   -1.8431   -0.6880 C.2       1 <0>         0.1751
      9 C8         -2.7376   -2.2601   -0.3796 C.2       1 <0>        -0.1730
     10 C9         -3.2727   -1.3217    0.5105 C.2       1 <0>         0.0546
     11 N2         -2.3499   -0.4045    0.7535 N.2       1 <0>        -0.2562
     12 C10        -4.6327   -1.3534    1.0859 C.2       1 <0>         0.6066
     13 O1         -5.3959   -2.2532    0.7929 O.2       1 <0>        -0.5190
     14 N3         -5.0276   -0.3847    1.9356 N.am      1 <0>        -0.8380
     15 C11        -3.3483   -3.5242   -0.9179 C.3       1 <0>        -0.0415
     16 C12        -2.8359   -3.8525   -2.3206 C.3       1 <0>        -0.0413
     17 C13        -1.3500   -3.6313   -2.4241 C.2       1 <0>         0.1150
     18 C14        -0.6736   -2.6386   -1.6524 C.2       1 <0>        -0.2028
     19 C15         0.6264   -2.6549   -1.9947 C.2       1 <0>         0.1002
     20 N4          0.7868   -3.6291   -2.9211 N.pl3     1 <0>        -0.4754
     21 N5         -0.4633   -4.2213   -3.1605 N.2       1 <0>        -0.2679
     22 H1          1.6228   -3.8758   -3.3468 H         1 <0>         0.4479
     23 S1          3.8902    2.3182   -0.0241 S.o2      1 <0>         2.7039
     24 O2          4.4553    2.1782    1.2721 O.2       1 <0>        -0.9573
     25 O3          4.5842    1.9346   -1.2033 O.2       1 <0>        -0.9561
     26 N6          3.5039    3.9187   -0.2018 N.pl3     1 <0>        -1.2466
     27 H2          0.2457   -0.1285   -2.1244 H         1 <0>         0.1453
     28 H3          2.3601    1.1309   -2.1329 H         1 <0>         0.1562
     29 H4          2.1400    1.5471    2.1066 H         1 <0>         0.1560
     30 H5          0.0269    0.2856    2.1262 H         1 <0>         0.1477
     31 H6         -4.4187    0.3333    2.1694 H         1 <0>         0.4086
     32 H7         -5.9208   -0.4055    2.3135 H         1 <0>         0.4106
     33 H8         -3.1040   -4.3492   -0.2488 H         1 <0>         0.0791
     34 H9         -4.4315   -3.4076   -0.9542 H         1 <0>         0.1042
     35 H10        -3.0583   -4.8953   -2.5471 H         1 <0>         0.0960
     36 H11        -3.3424   -3.2141   -3.0444 H         1 <0>         0.0927
     37 H12         1.3996   -2.0105   -1.6031 H         1 <0>         0.1821
     38 H13         4.0755    4.6012    0.1834 H         1 <0>         0.4239
     39 H14         2.7061    4.1737   -0.6910 H         1 <0>         0.4182
@<TRIPOS>BOND
     1    1    6 ar
     2    1    2 ar
     3    1   27 1
     4    2    3 ar
     5    2   28 1
     6    3    4 ar
     7    3   23 1
     8    4    5 ar
     9    4   29 1
    10    5    6 ar
    11    5   30 1
    12    6    7 1
    13    7   11 1
    14    7    8 1
    15    8    9 2
    16    8   18 1
    17    9   10 1
    18    9   15 1
    19   10   11 2
    20   10   12 1
    21   12   13 2
    22   12   14 am
    23   14   31 1
    24   14   32 1
    25   15   16 1
    26   15   33 1
    27   15   34 1
    28   16   35 1
    29   16   36 1
    30   16   17 1
    31   17   21 2
    32   17   18 1
    33   18   19 2
    34   19   37 1
    35   19   20 1
    36   20   21 1
    37   20   22 1
    38   23   24 2
    39   23   25 2
    40   23   26 1
    41   26   38 1
    42   26   39 1
@<TRIPOS>MOLECULE
CHEMBL75952
   66    72     0     0     0
SMALL
USER_CHARGES

@<TRIPOS>ATOM
      1 C1         -0.0178    1.4613    0.0101 C.3       1 <0>         0.0581
      2 N1          0.0021   -0.0041    0.0020 N.pl3     1 <0>        -0.4418
      3 C2         -0.0218   -0.7478   -1.1468 C.2       1 <0>         0.0498
      4 C3         -0.1157   -2.0491   -0.8379 C.2       1 <0>        -0.1834
      5 C4         -0.1502   -2.1329    0.6212 C.ar      1 <0>        -0.1218
      6 C5          0.0236   -0.8228    1.0987 C.ar      1 <0>         0.1055
      7 C6          0.2017   -0.6463    2.4844 C.ar      1 <0>         0.0550
      8 C7         -0.2656   -1.6699    3.3593 C.ar      1 <0>        -0.0116
      9 C8         -0.4340   -2.9690    2.8515 C.ar      1 <0>        -0.1739
     10 C9         -0.3463   -3.1990    1.5163 C.ar      1 <0>        -0.0261
     11 C10        -0.5440   -1.3620    4.7084 C.ar      1 <0>         0.1651
     12 C11        -0.0298   -0.1628    5.2342 C.ar      1 <0>        -0.0394
     13 C12        -0.4096   -0.1228    6.6566 C.ar      1 <0>        -0.1276
     14 C13        -0.1752    0.7932    7.6807 C.ar      1 <0>        -0.0058
     15 C14        -0.6634    0.5387    8.9433 C.ar      1 <0>        -0.2215
     16 C15        -1.3859   -0.6247    9.1954 C.ar      1 <0>         0.1769
     17 C16        -1.6317   -1.5332    8.1787 C.ar      1 <0>        -0.1859
     18 C17        -1.1491   -1.2866    6.8993 C.ar      1 <0>         0.1657
     19 N2         -1.2496   -1.9881    5.7073 N.pl3     1 <0>        -0.4829
     20 C18        -2.0398   -3.2156    5.5713 C.3       1 <0>         0.0901
     21 C19        -1.1507   -4.4284    5.8538 C.3       1 <0>        -0.0410
     22 N3         -1.9424   -5.6583    5.7176 N.4       1 <0>        -0.3825
     23 C20        -2.9771   -5.7033    6.7727 C.3       1 <0>        -0.0144
     24 C21        -3.0814   -7.1993    7.1610 C.3       1 <0>        -0.1343
     25 C22        -1.6008   -7.6523    7.0632 C.3       1 <0>        -0.1282
     26 C23        -1.0645   -6.8329    5.8705 C.3       1 <0>         0.0245
     27 H1         -0.0435   -6.5091    6.0723 H         1 <0>         0.1502
     28 C24        -1.1030   -7.6807    4.5974 C.3       1 <0>         0.0542
     29 O1         -2.4160   -8.2163    4.4213 O.3       1 <0>        -0.5737
     30 O2         -1.8409   -0.8694   10.4508 O.3       1 <0>        -0.3128
     31 C25        -1.5406    0.1057   11.4513 C.3       1 <0>         0.0234
     32 C26         0.6913    0.7267    4.4236 C.ar      1 <0>        -0.0794
     33 C27         0.8613    0.4580    3.0563 C.ar      1 <0>        -0.1512
     34 C28         1.8402    1.4532    2.5917 C.2       1 <0>         0.5790
     35 O3          2.4288    1.4374    1.5291 O.2       1 <0>        -0.4515
     36 N4          2.0156    2.3762    3.5599 N.am      1 <0>        -0.6813
     37 C29         1.3563    2.0220    4.6756 C.2       1 <0>         0.5779
     38 O4          1.3097    2.6515    5.7141 O.2       1 <0>        -0.4514
     39 H2          1.0048    1.8386    0.0023 H         1 <0>         0.0915
     40 H3         -0.5450    1.8224   -0.8730 H         1 <0>         0.0945
     41 H4         -0.5280    1.8128    0.9069 H         1 <0>         0.0782
     42 H5          0.0227   -0.3458   -2.1469 H         1 <0>         0.1788
     43 H6         -0.1506   -2.8744   -1.5332 H         1 <0>         0.1559
     44 H7         -0.6107   -3.8094    3.5023 H         1 <0>         0.1130
     45 H8         -0.4311   -4.2062    1.1422 H         1 <0>         0.1301
     46 H9          0.3820    1.6976    7.4953 H         1 <0>         0.1501
     47 H10        -0.4778    1.2431    9.7409 H         1 <0>         0.1415
     48 H11        -2.1864   -2.4318    8.3996 H         1 <0>         0.1304
     49 H12        -2.8655   -3.1969    6.2827 H         1 <0>         0.1167
     50 H13        -2.4349   -3.2830    4.5577 H         1 <0>         0.1148
     51 H14        -0.3250   -4.4471    5.1425 H         1 <0>         0.1370
     52 H15        -0.7556   -4.3610    6.8674 H         1 <0>         0.1415
     53 H16        -2.6685   -5.1087    7.6325 H         1 <0>         0.1318
     54 H17        -3.9305   -5.3446    6.3848 H         1 <0>         0.1361
     55 H18        -3.4584   -7.3136    8.1773 H         1 <0>         0.1141
     56 H19        -3.7041   -7.7443    6.4515 H         1 <0>         0.1087
     57 H20        -1.0603   -7.4027    7.9763 H         1 <0>         0.0978
     58 H21        -1.5375   -8.7206    6.8564 H         1 <0>         0.1149
     59 H22        -0.8458   -7.0596    3.7394 H         1 <0>         0.0714
     60 H23        -0.3860   -8.4972    4.6829 H         1 <0>         0.0963
     61 H24        -2.5140   -8.7658    3.6316 H         1 <0>         0.4073
     62 H25        -0.4595    0.2079   11.5462 H         1 <0>         0.0624
     63 H26        -1.9724    1.0648   11.1651 H         1 <0>         0.0630
     64 H27        -1.9608   -0.2116   12.4057 H         1 <0>         0.1075
     65 H28         2.5465    3.1820    3.4659 H         1 <0>         0.4354
     66 H29        -2.3839   -5.6801    4.8106 H         1 <0>         0.4275
@<TRIPOS>BOND
     1    1    2 1
     2    1   39 1
     3    1   40 1
     4    1   41 1
     5    2    6 1
     6    2    3 1
     7    3    4 2
     8    3   42 1
     9    4    5 1
    10    4   43 1
    11    5   10 ar
    12    5    6 ar
    13    6    7 ar
    14    7   33 ar
    15    7    8 ar
    16    8    9 ar
    17    8   11 ar
    18    9   10 ar
    19    9   44 1
    20   10   45 1
    21   11   19 1
    22   11   12 ar
    23   12   13 1
    24   12   32 ar
    25   13   18 ar
    26   13   14 ar
    27   14   15 ar
    28   14   46 1
    29   15   16 ar
    30   15   47 1
    31   16   17 ar
    32   16   30 1
    33   17   18 ar
    34   17   48 1
    35   18   19 1
    36   19   20 1
    37   20   21 1
    38   20   49 1
    39   20   50 1
    40   21   22 1
    41   21   51 1
    42   21   52 1
    43   22   26 1
    44   22   23 1
    45   22   66 1
    46   23   24 1
    47   23   53 1
    48   23   54 1
    49   24   25 1
    50   24   55 1
    51   24   56 1
    52   25   26 1
    53   25   57 1
    54   25   58 1
    55   26   27 1
    56   26   28 1
    57   28   29 1
    58   28   59 1
    59   28   60 1
    60   29   61 1
    61   30   31 1
    62   31   62 1
    63   31   63 1
    64   31   64 1
    65   32   37 1
    66   32   33 ar
    67   33   34 1
    68   34   35 2
    69   34   36 am
    70   36   37 am
    71   36   65 1
    72   37   38 2
@<TRIPOS>MOLECULE
CHEMBL360520
   37    40     0     0     0
SMALL
USER_CHARGES

@<TRIPOS>ATOM
      1 C1          0.6485    0.2574   -1.1992 C.ar      1 <0>        -0.1462
      2 C2          1.8337    0.9663   -1.2037 C.ar      1 <0>         0.0029
      3 C3          2.3770    1.4156   -0.0140 C.ar      1 <0>        -0.6739
      4 C4          1.7359    1.1569    1.1836 C.ar      1 <0>         0.0039
      5 C5          0.5504    0.4486    1.1951 C.ar      1 <0>        -0.1223
      6 C6          0.0021   -0.0041    0.0020 C.ar      1 <0>         0.1972
      7 N1         -1.1997   -0.7220    0.0101 N.pl3     1 <0>        -0.2648
      8 C7         -1.4245   -1.8600   -0.7157 C.ar      1 <0>         0.1388
      9 C8         -2.7381   -2.2576   -0.4253 C.ar      1 <0>        -0.1351
     10 C9         -3.2811   -3.4028   -1.0169 C.ar      1 <0>         0.0043
     11 C10        -2.5399   -4.1466   -1.8828 C.ar      1 <0>        -0.1445
     12 C11        -1.2270   -3.7766   -2.1930 C.ar      1 <0>         0.1652
     13 C12        -0.6588   -2.6307   -1.6120 C.ar      1 <0>        -0.1793
     14 C13         0.6576   -2.5221   -2.1142 C.2       1 <0>         0.0700
     15 N2          0.8756   -3.5136   -2.9300 N.2       1 <0>        -0.2444
     16 N3         -0.2673   -4.3181   -3.0087 N.pl3     1 <0>        -0.4861
     17 H1         -0.3636   -5.1193   -3.5470 H         1 <0>         0.4482
     18 C14        -3.2246   -1.2459    0.5223 C.2       1 <0>         0.0324
     19 N4         -2.2311   -0.4005    0.7036 N.2       1 <0>        -0.2222
     20 C15        -4.5572   -1.1908    1.1492 C.2       1 <0>         0.6132
     21 O1         -5.3847   -2.0449    0.8946 O.2       1 <0>        -0.5239
     22 N5         -4.8588   -0.1939    2.0045 N.am      1 <0>        -0.8374
     23 S1          3.8896    2.3192   -0.0242 S.o2      1 <0>         2.7032
     24 O2          4.4689    2.1558    1.2630 O.2       1 <0>        -0.9570
     25 O3          4.5708    1.9574   -1.2177 O.2       1 <0>        -0.9564
     26 N6          3.5012    3.9225   -0.1685 N.pl3     1 <0>        -1.2487
     27 H2          0.2224   -0.0894   -2.1290 H         1 <0>         0.1486
     28 H3          2.3370    1.1697   -2.1374 H         1 <0>         0.1597
     29 H4          2.1629    1.5089    2.1111 H         1 <0>         0.1580
     30 H5          0.0504    0.2466    2.1308 H         1 <0>         0.1486
     31 H6         -4.2937   -3.6985   -0.7852 H         1 <0>         0.1533
     32 H7         -2.9686   -5.0295   -2.3336 H         1 <0>         0.1418
     33 H8          1.3651   -1.7455   -1.8637 H         1 <0>         0.1920
     34 H9         -4.1988    0.4873    2.2076 H         1 <0>         0.4087
     35 H10        -5.7359   -0.1576    2.4172 H         1 <0>         0.4114
     36 H11         2.5716    4.1929   -0.2283 H         1 <0>         0.4176
     37 H12         4.2034    4.5913   -0.1931 H         1 <0>         0.4234
@<TRIPOS>BOND
     1    1    6 ar
     2    1    2 ar
     3    1   27 1
     4    2    3 ar
     5    2   28 1
     6    3    4 ar
     7    3   23 1
     8    4    5 ar
     9    4   29 1
    10    5    6 ar
    11    5   30 1
    12    6    7 1
    13    7   19 1
    14    7    8 1
    15    8   13 ar
    16    8    9 ar
    17    9   10 ar
    18    9   18 1
    19   10   11 ar
    20   10   31 1
    21   11   12 ar
    22   11   32 1
    23   12   16 1
    24   12   13 ar
    25   13   14 1
    26   14   15 2
    27   14   33 1
    28   15   16 1
    29   16   17 1
    30   18   19 2
    31   18   20 1
    32   20   21 2
    33   20   22 am
    34   22   34 1
    35   22   35 1
    36   23   24 2
    37   23   25 2
    38   23   26 1
    39   26   36 1
    40   26   37 1
@<TRIPOS>MOLECULE
CHEMBL360520
   37    40     0     0     0
SMALL
USER_CHARGES

@<TRIPOS>ATOM
      1 C1         -0.0168    1.3846    0.0097 C.ar      1 <0>        -0.1331
      2 C2          1.1706    2.0899    0.0021 C.ar      1 <0>         0.0097
      3 C3          2.3774    1.4148   -0.0135 C.ar      1 <0>        -0.6838
      4 C4          2.3996    0.0321   -0.0211 C.ar      1 <0>         0.0063
      5 C5          1.2158   -0.6790   -0.0132 C.ar      1 <0>        -0.1732
      6 C6          0.0021   -0.0041    0.0020 C.ar      1 <0>         0.2227
      7 N1         -1.1999   -0.7220    0.0101 N.pl3     1 <0>        -0.3284
      8 C7         -1.4153   -1.9110   -0.6292 C.ar      1 <0>         0.1883
      9 C8         -2.7333   -2.2912   -0.3743 C.ar      1 <0>        -0.1513
     10 C9         -3.2676   -3.4862   -0.9001 C.ar      1 <0>        -0.0185
     11 C10        -2.5445   -4.3236   -1.6715 C.ar      1 <0>        -0.1054
     12 C11        -1.1558   -4.0113   -1.9929 C.ar      1 <0>         0.1391
     13 C12        -0.5737   -2.7705   -1.4590 C.ar      1 <0>        -0.2060
     14 C13         0.7269   -2.7223   -1.9088 C.2       1 <0>         0.0886
     15 N2          0.9470   -3.8178   -2.6530 N.pl3     1 <0>        -0.4341
     16 N3         -0.2111   -4.6030   -2.6967 N.2       1 <0>        -0.2790
     17 H1          1.7841   -4.0342   -3.0927 H         1 <0>         0.4503
     18 C14        -3.3068   -1.2370    0.4736 C.2       1 <0>         0.0762
     19 N4         -2.3666   -0.3386    0.6783 N.2       1 <0>        -0.2285
     20 C15        -4.6818   -1.1961    1.0034 C.2       1 <0>         0.6077
     21 O1         -5.4596   -2.0947    0.7458 O.2       1 <0>        -0.5148
     22 N5         -5.0769   -0.1628    1.7732 N.am      1 <0>        -0.8352
     23 S1          3.8901    2.3184   -0.0243 S.o2      1 <0>         2.7041
     24 O2          4.8717    1.4603   -0.5894 O.2       1 <0>        -0.9596
     25 O3          3.5946    3.5985   -0.5657 O.2       1 <0>        -0.9579
     26 N6          4.3264    2.5615    1.5546 N.pl3     1 <0>        -1.2490
     27 H2         -0.9589    1.9124    0.0260 H         1 <0>         0.1491
     28 H3          1.1567    3.1698    0.0080 H         1 <0>         0.1568
     29 H4          3.3438   -0.4921   -0.0337 H         1 <0>         0.1571
     30 H5          1.2338   -1.7589   -0.0195 H         1 <0>         0.1502
     31 H6         -4.2932   -3.7401   -0.6764 H         1 <0>         0.1493
     32 H7         -2.9947   -5.2284   -2.0524 H         1 <0>         0.1445
     33 H8          1.4431   -1.9412   -1.7002 H         1 <0>         0.1944
     34 H9         -4.4564    0.5540    1.9787 H         1 <0>         0.4093
     35 H10        -5.9817   -0.1359    2.1218 H         1 <0>         0.4131
     36 H11         3.7678    2.2199    2.2703 H         1 <0>         0.4176
     37 H12         5.1406    3.0455    1.7638 H         1 <0>         0.4232
@<TRIPOS>BOND
     1    1    6 ar
     2    1    2 ar
     3    1   27 1
     4    2    3 ar
     5    2   28 1
     6    3    4 ar
     7    3   23 1
     8    4    5 ar
     9    4   29 1
    10    5    6 ar
    11    5   30 1
    12    6    7 1
    13    7   19 1
    14    7    8 1
    15    8   13 ar
    16    8    9 ar
    17    9   10 ar
    18    9   18 1
    19   10   11 ar
    20   10   31 1
    21   11   12 ar
    22   11   32 1
    23   12   13 ar
    24   12   16 2
    25   13   14 2
    26   14   33 1
    27   14   15 1
    28   15   17 1
    29   15   16 1
    30   18   19 2
    31   18   20 1
    32   20   21 2
    33   20   22 am
    34   22   34 1
    35   22   35 1
    36   23   24 2
    37   23   25 2
    38   23   26 1
    39   26   36 1
    40   26   37 1
@<TRIPOS>MOLECULE
CHEMBL1092754
   55    59     0     0     0
SMALL
USER_CHARGES

@<TRIPOS>ATOM
      1 C1         -0.4192    1.4159    0.0566 C.3       1 <0>         0.0727
      2 N1         -0.1016   -0.0136    0.0117 N.pl3     1 <0>        -0.4581
      3 C2         -0.1908   -0.7897   -1.0975 C.2       1 <0>         0.1293
      4 C3          0.1811   -2.0806   -0.7851 C.2       1 <0>        -0.1757
      5 C4          0.5246   -2.0730    0.6464 C.ar      1 <0>        -0.1106
      6 C5          0.3345   -0.7539    1.0889 C.ar      1 <0>         0.2836
      7 N2          0.5756   -0.4422    2.3559 N.ar      1 <0>        -0.4889
      8 C6          0.9961   -1.3357    3.2271 C.ar      1 <0>         0.1395
      9 C7          1.2113   -2.6536    2.8696 C.ar      1 <0>        -0.1753
     10 C8          0.9674   -3.0495    1.5523 C.ar      1 <0>         0.0341
     11 C9          1.1853   -4.4499    1.1217 C.ar      1 <0>        -0.0286
     12 C10         2.0507   -4.7273    0.0624 C.ar      1 <0>        -0.1099
     13 C11         2.2540   -6.0285   -0.3381 C.ar      1 <0>        -0.0524
     14 C12         1.5938   -7.0716    0.3161 C.ar      1 <0>        -0.1250
     15 C13         0.7278   -6.7932    1.3763 C.ar      1 <0>        -0.0829
     16 C14         0.5295   -5.4919    1.7792 C.ar      1 <0>        -0.1062
     17 C15         1.8112   -8.4684   -0.1135 C.2       1 <0>         0.5568
     18 O1          2.5646   -8.7103   -1.0364 O.2       1 <0>        -0.5309
     19 N3          1.1742   -9.4745    0.5179 N.am      1 <0>        -0.7213
     20 C16         1.3896  -10.8595    0.0919 C.3       1 <0>         0.1186
     21 C17         0.5549  -11.7976    0.9660 C.3       1 <0>         0.0626
     22 O2         -0.8340  -11.5455    0.7439 O.3       1 <0>        -0.5715
     23 C18         0.2253   -3.2260   -1.6930 C.2       1 <0>         0.0485
     24 C19         0.1951   -3.0287   -3.0404 C.2       1 <0>        -0.0763
     25 C20         0.2260   -4.0478   -4.0299 C.2       1 <0>         0.4132
     26 O3          0.2838   -5.2531   -3.8509 O.2       1 <0>        -0.4176
     27 C21         0.1722   -3.3362   -5.3178 C.ar      1 <0>        -0.2958
     28 C22         0.1703   -3.7556   -6.6523 C.ar      1 <0>         0.2182
     29 C23         0.1107   -2.8116   -7.6645 C.ar      1 <0>        -0.1883
     30 C24         0.0541   -1.4640   -7.3536 C.ar      1 <0>        -0.0320
     31 C25         0.0556   -1.0416   -6.0394 C.ar      1 <0>        -0.1507
     32 C26         0.1143   -1.9689   -5.0062 C.ar      1 <0>         0.1544
     33 O4          0.1245   -1.8283   -3.6631 O.3       1 <0>        -0.2160
     34 O5          0.2268   -5.0776   -6.9532 O.3       1 <0>        -0.4871
     35 H1          0.4758    1.9943   -0.1727 H         1 <0>         0.0780
     36 H2         -1.1939    1.6391   -0.6770 H         1 <0>         0.0891
     37 H3         -0.7758    1.6778    1.0527 H         1 <0>         0.0928
     38 H4         -0.5048   -0.4497   -2.0733 H         1 <0>         0.1919
     39 H5          1.1779   -1.0309    4.2472 H         1 <0>         0.1673
     40 H6          1.5571   -3.3692    3.6007 H         1 <0>         0.1443
     41 H7          2.5606   -3.9208   -0.4435 H         1 <0>         0.1325
     42 H8          2.9234   -6.2430   -1.1581 H         1 <0>         0.1416
     43 H9          0.2171   -7.5991    1.8825 H         1 <0>         0.1302
     44 H10        -0.1368   -5.2768    2.6015 H         1 <0>         0.1342
     45 H11         0.5730   -9.2814    1.2543 H         1 <0>         0.4025
     46 H12         1.0890  -10.9702   -0.9499 H         1 <0>         0.0784
     47 H13         2.4453  -11.1110    0.1942 H         1 <0>         0.0851
     48 H14         0.7821  -12.8321    0.7087 H         1 <0>         0.0662
     49 H15         0.7925  -11.6237    2.0155 H         1 <0>         0.0542
     50 H16        -1.4240  -12.1058    1.2666 H         1 <0>         0.3839
     51 H17         0.2820   -4.2285   -1.2952 H         1 <0>         0.1649
     52 H18         0.1088   -3.1275   -8.6973 H         1 <0>         0.1431
     53 H19         0.0086   -0.7344   -8.1485 H         1 <0>         0.1466
     54 H20         0.0111    0.0135   -5.8133 H         1 <0>         0.1410
     55 H21        -0.6392   -5.5017   -7.0263 H         1 <0>         0.4016
@<TRIPOS>BOND
     1    1    2 1
     2    1   35 1
     3    1   36 1
     4    1   37 1
     5    2    6 1
     6    2    3 1
     7    3    4 2
     8    3   38 1
     9    4    5 1
    10    4   23 1
    11    5   10 ar
    12    5    6 ar
    13    6    7 ar
    14    7    8 ar
    15    8    9 ar
    16    8   39 1
    17    9   10 ar
    18    9   40 1
    19   10   11 1
    20   11   16 ar
    21   11   12 ar
    22   12   13 ar
    23   12   41 1
    24   13   14 ar
    25   13   42 1
    26   14   15 ar
    27   14   17 1
    28   15   16 ar
    29   15   43 1
    30   16   44 1
    31   17   18 2
    32   17   19 am
    33   19   20 1
    34   19   45 1
    35   20   21 1
    36   20   46 1
    37   20   47 1
    38   21   22 1
    39   21   48 1
    40   21   49 1
    41   22   50 1
    42   23   24 2
    43   23   51 1
    44   24   33 1
    45   24   25 1
    46   25   26 2
    47   25   27 1
    48   27   32 ar
    49   27   28 ar
    50   28   29 ar
    51   28   34 1
    52   29   30 ar
    53   29   52 1
    54   30   31 ar
    55   30   53 1
    56   31   32 ar
    57   31   54 1
    58   32   33 1
    59   34   55 1
@<TRIPOS>MOLECULE
CHEMBL339948
   50    55     0     0     0
SMALL
USER_CHARGES

@<TRIPOS>ATOM
      1 C1         -0.2854    1.4635    0.0492 C.3       1 <0>         0.0274
      2 N1         -0.3368   -0.0006    0.0516 N.pl3     1 <0>        -0.4983
      3 C2         -0.5770   -0.7840   -1.0616 C.ar      1 <0>         0.1446
      4 C3         -0.8209   -0.4690   -2.3951 C.ar      1 <0>        -0.1448
      5 C4         -1.0318   -1.4743   -3.3140 C.ar      1 <0>        -0.0719
      6 C5         -1.0044   -2.8049   -2.9237 C.ar      1 <0>        -0.1485
      7 C6         -0.7647   -3.1378   -1.6085 C.ar      1 <0>        -0.0456
      8 C7         -0.5492   -2.1311   -0.6683 C.ar      1 <0>        -0.1056
      9 C8         -0.2730   -2.1389    0.7781 C.ar      1 <0>        -0.0099
     10 C9         -0.1460   -0.7951    1.1657 C.ar      1 <0>         0.1449
     11 C10         0.1277   -0.4768    2.5017 C.ar      1 <0>         0.1477
     12 C11         0.2779   -1.5028    3.4489 C.ar      1 <0>        -0.0084
     13 C12         0.5541   -0.8437    4.7364 C.ar      1 <0>        -0.1074
     14 C13         0.7909   -1.3192    6.0255 C.ar      1 <0>        -0.0458
     15 C14         1.0237   -0.4288    7.0507 C.ar      1 <0>        -0.1493
     16 C15         1.0232    0.9362    6.8045 C.ar      1 <0>        -0.0723
     17 C16         0.7901    1.4201    5.5353 C.ar      1 <0>        -0.1386
     18 C17         0.5533    0.5374    4.4857 C.ar      1 <0>         0.1558
     19 N2          0.2961    0.7356    3.1422 N.pl3     1 <0>        -0.4854
     20 C18         0.2142    2.0450    2.4901 C.3       1 <0>         0.0268
     21 C19        -1.2344    2.5367    2.5136 C.3       1 <0>         0.0821
     22 C20        -1.3423    3.8433    1.7248 C.3       1 <0>         0.0404
     23 O1         -2.7125    4.2414    1.6478 O.3       1 <0>        -0.5571
     24 O2         -1.6392    2.7617    3.8654 O.3       1 <0>        -0.5311
     25 C21         0.1553   -2.8432    3.0627 C.ar      1 <0>        -0.1090
     26 C22        -0.1283   -3.1624    1.7228 C.ar      1 <0>        -0.1106
     27 C23        -0.1926   -4.6334    1.6617 C.2       1 <0>         0.5849
     28 O3         -0.4064   -5.2932    0.6640 O.2       1 <0>        -0.4595
     29 N3          0.0256   -5.1236    2.8952 N.am      1 <0>        -0.6811
     30 C24         0.2500   -4.1303    3.7743 C.2       1 <0>         0.5846
     31 O4          0.4778   -4.2703    4.9596 O.2       1 <0>        -0.4585
     32 H1          0.7543    1.7906    0.0586 H         1 <0>         0.0821
     33 H2         -0.7775    1.8429   -0.8463 H         1 <0>         0.0952
     34 H3         -0.7948    1.8464    0.9336 H         1 <0>         0.1108
     35 H4         -0.8452    0.5638   -2.7100 H         1 <0>         0.1245
     36 H5         -1.2205   -1.2236   -4.3474 H         1 <0>         0.1323
     37 H6         -1.1719   -3.5831   -3.6536 H         1 <0>         0.1315
     38 H7         -0.7442   -4.1746   -1.3069 H         1 <0>         0.1423
     39 H8          0.7914   -2.3816    6.2198 H         1 <0>         0.1413
     40 H9          1.2069   -0.7950    8.0500 H         1 <0>         0.1306
     41 H10         1.2067    1.6261    7.6149 H         1 <0>         0.1314
     42 H11         0.7917    2.4849    5.3550 H         1 <0>         0.1207
     43 H12         0.8478    2.7555    3.0210 H         1 <0>         0.1020
     44 H13         0.5518    1.9583    1.4573 H         1 <0>         0.1339
     45 H14        -1.8807    1.7847    2.0611 H         1 <0>         0.1138
     46 H15        -0.7659    4.6199    2.2275 H         1 <0>         0.0591
     47 H16        -0.9503    3.6937    0.7187 H         1 <0>         0.0579
     48 H17        -2.8563    5.0641    1.1603 H         1 <0>         0.3858
     49 H18        -1.1065    3.4209    4.3310 H         1 <0>         0.3730
     50 H19         0.0340   -6.0676    3.1182 H         1 <0>         0.4315
@<TRIPOS>BOND
     1    1    2 1
     2    1   32 1
     3    1   33 1
     4    1   34 1
     5    2   10 1
     6    2    3 1
     7    3    8 ar
     8    3    4 ar
     9    4    5 ar
    10    4   35 1
    11    5    6 ar
    12    5   36 1
    13    6    7 ar
    14    6   37 1
    15    7    8 ar
    16    7   38 1
    17    8    9 1
    18    9   26 ar
    19    9   10 ar
    20   10   11 ar
    21   11   19 1
    22   11   12 ar
    23   12   13 1
    24   12   25 ar
    25   13   18 ar
    26   13   14 ar
    27   14   15 ar
    28   14   39 1
    29   15   16 ar
    30   15   40 1
    31   16   17 ar
    32   16   41 1
    33   17   18 ar
    34   17   42 1
    35   18   19 1
    36   19   20 1
    37   20   21 1
    38   20   43 1
    39   20   44 1
    40   21   22 1
    41   21   24 1
    42   21   45 1
    43   22   23 1
    44   22   46 1
    45   22   47 1
    46   23   48 1
    47   24   49 1
    48   25   30 1
    49   25   26 ar
    50   26   27 1
    51   27   28 2
    52   27   29 am
    53   29   30 am
    54   29   50 1
    55   30   31 2
@<TRIPOS>MOLECULE
CHEMBL339948
   50    55     0     0     0
SMALL
USER_CHARGES

@<TRIPOS>ATOM
      1 C1          0.2809    1.0377    0.5277 C.3       1 <0>         0.0093
      2 N1          0.0146   -0.3999    0.6217 N.pl3     1 <0>        -0.4963
      3 C2          0.0272   -1.2767   -0.4468 C.ar      1 <0>         0.1439
      4 C3          0.2697   -1.0962   -1.8053 C.ar      1 <0>        -0.1459
      5 C4          0.2151   -2.1722   -2.6648 C.ar      1 <0>        -0.0726
      6 C5         -0.0809   -3.4411   -2.1898 C.ar      1 <0>        -0.1490
      7 C6         -0.3242   -3.6410   -0.8485 C.ar      1 <0>        -0.0457
      8 C7         -0.2718   -2.5616    0.0325 C.ar      1 <0>        -0.1042
      9 C8         -0.4743   -2.4297    1.4851 C.ar      1 <0>        -0.0112
     10 C9         -0.2791   -1.0732    1.7918 C.ar      1 <0>         0.1528
     11 C10        -0.4003   -0.6325    3.1156 C.ar      1 <0>         0.1646
     12 C11        -0.7133   -1.5492    4.1325 C.ar      1 <0>        -0.0141
     13 C12        -0.7661   -0.7783    5.3861 C.ar      1 <0>        -0.1041
     14 C13        -1.0250   -1.1216    6.7124 C.ar      1 <0>        -0.0460
     15 C14        -1.0008   -0.1488    7.6876 C.ar      1 <0>        -0.1493
     16 C15        -0.7203    1.1680    7.3545 C.ar      1 <0>        -0.0726
     17 C16        -0.4630    1.5215    6.0475 C.ar      1 <0>        -0.1456
     18 C17        -0.4821    0.5539    5.0474 C.ar      1 <0>         0.1461
     19 N2         -0.2662    0.6197    3.6837 N.pl3     1 <0>        -0.4806
     20 C18         0.0589    1.8429    2.9459 C.3       1 <0>         0.0259
     21 C19        -1.2344    2.5367    2.5136 C.3       1 <0>         0.0803
     22 C20        -0.8996    3.7102    1.5906 C.3       1 <0>         0.0372
     23 O1         -2.0955    4.4284    1.2804 O.3       1 <0>        -0.5587
     24 O2         -2.0650    1.6052    1.8176 O.3       1 <0>        -0.5375
     25 C21        -0.9043   -2.9026    3.8282 C.ar      1 <0>        -0.1080
     26 C22        -0.7912   -3.3435    2.4976 C.ar      1 <0>        -0.1131
     27 C23        -1.0504   -4.7939    2.5282 C.2       1 <0>         0.5850
     28 O3         -1.0314   -5.5382    1.5678 O.2       1 <0>        -0.4606
     29 N3         -1.3111   -5.1561    3.7971 N.am      1 <0>        -0.6814
     30 C24        -1.2330   -4.0983    4.6245 C.2       1 <0>         0.5845
     31 O4         -1.4175   -4.1220    5.8253 O.2       1 <0>        -0.4596
     32 H1          1.3058    1.2385    0.8397 H         1 <0>         0.0828
     33 H2          0.1438    1.3659   -0.5026 H         1 <0>         0.0948
     34 H3         -0.4088    1.5781    1.1760 H         1 <0>         0.1207
     35 H4          0.5005   -0.1123   -2.1863 H         1 <0>         0.1237
     36 H5          0.4042   -2.0258   -3.7180 H         1 <0>         0.1317
     37 H6         -0.1213   -4.2757   -2.8740 H         1 <0>         0.1310
     38 H7         -0.5548   -4.6300   -0.4809 H         1 <0>         0.1420
     39 H8         -1.2440   -2.1462    6.9742 H         1 <0>         0.1416
     40 H9         -1.2013   -0.4126    8.7156 H         1 <0>         0.1308
     41 H10        -0.7036    1.9233    8.1263 H         1 <0>         0.1316
     42 H11        -0.2461    2.5500    5.7993 H         1 <0>         0.1230
     43 H12         0.6334    2.5118    3.5867 H         1 <0>         0.1055
     44 H13         0.6477    1.5898    2.0642 H         1 <0>         0.1330
     45 H14        -1.7607    2.9056    3.3940 H         1 <0>         0.1171
     46 H15        -0.1953    4.3757    2.0899 H         1 <0>         0.0681
     47 H16        -0.4533    3.3330    0.6706 H         1 <0>         0.0552
     48 H17        -1.9582    5.1877    0.6976 H         1 <0>         0.3881
     49 H18        -1.8709    1.5347    0.8729 H         1 <0>         0.3746
     50 H19        -1.5144   -6.0615    4.0798 H         1 <0>         0.4312
@<TRIPOS>BOND
     1    1    2 1
     2    1   32 1
     3    1   33 1
     4    1   34 1
     5    2   10 1
     6    2    3 1
     7    3    8 ar
     8    3    4 ar
     9    4    5 ar
    10    4   35 1
    11    5    6 ar
    12    5   36 1
    13    6    7 ar
    14    6   37 1
    15    7    8 ar
    16    7   38 1
    17    8    9 1
    18    9   26 ar
    19    9   10 ar
    20   10   11 ar
    21   11   19 1
    22   11   12 ar
    23   12   13 1
    24   12   25 ar
    25   13   18 ar
    26   13   14 ar
    27   14   15 ar
    28   14   39 1
    29   15   16 ar
    30   15   40 1
    31   16   17 ar
    32   16   41 1
    33   17   18 ar
    34   17   42 1
    35   18   19 1
    36   19   20 1
    37   20   21 1
    38   20   43 1
    39   20   44 1
    40   21   22 1
    41   21   24 1
    42   21   45 1
    43   22   23 1
    44   22   46 1
    45   22   47 1
    46   23   48 1
    47   24   49 1
    48   25   30 1
    49   25   26 ar
    50   26   27 1
    51   27   28 2
    52   27   29 am
    53   29   30 am
    54   29   50 1
    55   30   31 2
@<TRIPOS>MOLECULE
CHEMBL232864
   59    62     0     0     0
SMALL
USER_CHARGES

@<TRIPOS>ATOM
      1 C1         -4.0051    2.8381   -7.0488 C.3       1 <0>        -0.1650
      2 C2         -3.9460    1.9971   -5.7997 C.2       1 <0>         0.5111
      3 O1         -4.6334    2.2838   -4.8425 O.2       1 <0>        -0.5058
      4 N1         -3.1291    0.9264   -5.7462 N.am      1 <0>        -0.6106
      5 C3         -3.0745    0.1507   -4.5941 C.2       1 <0>         0.2549
      6 N2         -2.3405   -0.9157   -4.3606 N.2       1 <0>        -0.5354
      7 C4         -2.4033   -1.5471   -3.2030 C.2       1 <0>         0.0804
      8 C5         -3.2544   -1.0470   -2.2737 C.2       1 <0>        -0.2644
      9 S1         -3.9260    0.3521   -3.1564 S.3       1 <0>         0.2194
     10 C6         -1.5666   -2.7697   -2.9270 C.3       1 <0>         0.0455
     11 C7         -1.8160   -3.8012   -3.9970 C.2       1 <0>         0.2197
     12 N3         -2.7283   -4.7312   -3.9753 N.2       1 <0>        -0.2645
     13 N4         -2.6638   -5.4377   -5.0470 N.2       1 <0>        -0.2833
     14 C8         -1.6983   -4.9926   -5.8171 C.2       1 <0>         0.1577
     15 N5         -1.1306   -3.9307   -5.1734 N.pl3     1 <0>        -0.2474
     16 N6         -0.0652   -3.1398   -5.6231 N.am      1 <0>        -0.5141
     17 C9         -0.2824   -2.1727   -6.5363 C.2       1 <0>         0.5727
     18 O2         -1.4152   -1.9241   -6.9007 O.2       1 <0>        -0.4744
     19 C10         0.8565   -1.4143   -7.0946 C.ar      1 <0>        -0.1212
     20 C11         2.1591   -1.7014   -6.6823 C.ar      1 <0>        -0.0724
     21 C12         3.2178   -0.9904   -7.2068 C.ar      1 <0>        -0.1126
     22 C13         2.9909    0.0069   -8.1409 C.ar      1 <0>        -0.0062
     23 C14         1.7008    0.2965   -8.5534 C.ar      1 <0>        -0.1140
     24 C15         0.6346   -0.4119   -8.0407 C.ar      1 <0>        -0.0410
     25 Cl1         4.3288    0.8978   -8.7967 Cl        1 <0>        -0.0529
     26 S2         -1.2279   -5.6393   -7.3872 S.3       1 <0>         0.0949
     27 C16        -2.3737   -7.0200   -7.6542 C.3       1 <0>        -0.1459
     28 C17        -2.0763   -7.6702   -8.9808 C.2       1 <0>         0.5555
     29 O3         -1.1795   -7.2440   -9.6777 O.2       1 <0>        -0.4840
     30 N7         -2.8068   -8.7252   -9.3930 N.am      1 <0>        -0.5784
     31 N8         -2.5303   -9.3297  -10.6263 N.2       1 <0>        -0.2286
     32 C18        -3.2335  -10.3454  -11.0232 C.2       1 <0>         0.1181
     33 C19        -2.9425  -10.9817  -12.3215 C.ar      1 <0>        -0.0615
     34 C20        -1.9068  -10.4972  -13.1238 C.ar      1 <0>        -0.0774
     35 C21        -1.6399  -11.0976  -14.3367 C.ar      1 <0>        -0.1253
     36 C22        -2.3956  -12.1769  -14.7592 C.ar      1 <0>        -0.1010
     37 C23        -3.4231  -12.6621  -13.9696 C.ar      1 <0>        -0.1252
     38 C24        -3.6975  -12.0753  -12.7518 C.ar      1 <0>        -0.0882
     39 H1         -3.2643    3.6352   -6.9856 H         1 <0>         0.1056
     40 H2         -3.7942    2.2141   -7.9173 H         1 <0>         0.0890
     41 H3         -4.9996    3.2733   -7.1470 H         1 <0>         0.1068
     42 H4         -2.5792    0.6972   -6.5118 H         1 <0>         0.4257
     43 H5         -3.4652   -1.3965   -1.2738 H         1 <0>         0.1980
     44 H6         -0.5117   -2.4953   -2.9257 H         1 <0>         0.0986
     45 H7         -1.8359   -3.1824   -1.9547 H         1 <0>         0.1238
     46 H8          0.8288   -3.2884   -5.2773 H         1 <0>         0.4266
     47 H9          2.3372   -2.4785   -5.9538 H         1 <0>         0.1348
     48 H10         4.2259   -1.2113   -6.8883 H         1 <0>         0.1451
     49 H11         1.5300    1.0755   -9.2818 H         1 <0>         0.1459
     50 H12        -0.3704   -0.1887   -8.3670 H         1 <0>         0.1468
     51 H13        -2.2530   -7.7520   -6.8557 H         1 <0>         0.1325
     52 H14        -3.3981   -6.6474   -7.6538 H         1 <0>         0.1315
     53 H15        -3.5239   -9.0660   -8.8358 H         1 <0>         0.3909
     54 H16        -4.0320  -10.7248  -10.4027 H         1 <0>         0.1238
     55 H17        -1.3166   -9.6544  -12.7956 H         1 <0>         0.1350
     56 H18        -0.8395  -10.7241  -14.9581 H         1 <0>         0.1274
     57 H19        -2.1827  -12.6427  -15.7101 H         1 <0>         0.1256
     58 H20        -4.0091  -13.5047  -14.3058 H         1 <0>         0.1283
     59 H21        -4.4968  -12.4578  -12.1345 H         1 <0>         0.1288
@<TRIPOS>BOND
     1    1    2 1
     2    1   39 1
     3    1   40 1
     4    1   41 1
     5    2    3 2
     6    2    4 am
     7    4    5 1
     8    4   42 1
     9    5    9 1
    10    5    6 2
    11    6    7 1
    12    7    8 2
    13    7   10 1
    14    8    9 1
    15    8   43 1
    16   10   11 1
    17   10   44 1
    18   10   45 1
    19   11   15 1
    20   11   12 2
    21   12   13 1
    22   13   14 2
    23   14   15 1
    24   14   26 1
    25   15   16 1
    26   16   17 am
    27   16   46 1
    28   17   18 2
    29   17   19 1
    30   19   24 ar
    31   19   20 ar
    32   20   21 ar
    33   20   47 1
    34   21   22 ar
    35   21   48 1
    36   22   23 ar
    37   22   25 1
    38   23   24 ar
    39   23   49 1
    40   24   50 1
    41   26   27 1
    42   27   28 1
    43   27   51 1
    44   27   52 1
    45   28   29 2
    46   28   30 am
    47   30   31 1
    48   30   53 1
    49   31   32 2
    50   32   33 1
    51   32   54 1
    52   33   38 ar
    53   33   34 ar
    54   34   35 ar
    55   34   55 1
    56   35   36 ar
    57   35   56 1
    58   36   37 ar
    59   36   57 1
    60   37   38 ar
    61   37   58 1
    62   38   59 1
@<TRIPOS>MOLECULE
CHEMBL1081104
   50    53     0     0     0
SMALL
USER_CHARGES

@<TRIPOS>ATOM
      1 C1         -0.0167    1.3781    0.0096 C.ar      1 <0>        -0.1412
      2 C2          1.1709    2.0855    0.0021 C.ar      1 <0>        -0.0581
      3 C3          2.3773    1.4107   -0.0130 C.ar      1 <0>        -0.1623
      4 C4          2.3960    0.0285   -0.0201 C.ar      1 <0>        -0.0558
      5 C5          1.2085   -0.6789   -0.0117 C.ar      1 <0>        -0.1021
      6 C6          0.0021   -0.0041    0.0020 C.ar      1 <0>        -0.0995
      7 C7         -1.2926   -0.7753    0.0107 C.3       1 <0>        -0.1006
      8 C8         -1.7450   -1.0285   -1.4288 C.3       1 <0>         0.0268
      9 H1         -0.9463   -1.5264   -1.9784 H         1 <0>         0.1568
     10 C9         -2.9907   -1.9168   -1.4231 C.3       1 <0>         0.0956
     11 N1         -3.4936   -2.0615   -2.7914 N.pl3     1 <0>        -0.7203
     12 C10        -4.6200   -2.8255   -3.0370 C.2       1 <0>         0.3309
     13 C11        -5.1852   -3.0454   -4.2510 C.2       1 <0>        -0.3317
     14 C12        -6.3111   -3.8742   -4.0628 C.2       1 <0>         0.1794
     15 N2         -6.4101   -4.1369   -2.7802 N.2       1 <0>        -0.3033
     16 O1         -5.3430   -3.4850   -2.1160 O.3       1 <0>        -0.0967
     17 C13        -7.2232   -4.3627   -5.1271 C.ar      1 <0>        -0.0302
     18 C14        -6.9888   -4.0022   -6.4636 C.ar      1 <0>        -0.0960
     19 C15        -7.8076   -4.4344   -7.4585 C.ar      1 <0>        -0.0788
     20 C16        -8.9063   -5.2545   -7.1526 C.ar      1 <0>        -0.1008
     21 C17        -9.7793   -5.7257   -8.1465 C.ar      1 <0>         0.1468
     22 N3        -10.7941   -6.4904   -7.8180 N.ar      1 <0>        -0.4777
     23 C18       -11.0461   -6.8512   -6.5672 C.ar      1 <0>         0.0838
     24 C19       -10.2606   -6.4475   -5.5307 C.ar      1 <0>        -0.1490
     25 C20        -9.1515   -5.6249   -5.8042 C.ar      1 <0>        -0.0298
     26 C21        -8.2928   -5.1732   -4.7939 C.ar      1 <0>        -0.0599
     27 N4         -2.0599    0.2523   -2.0756 N.4       1 <0>        -0.6403
     28 C22         3.6720    2.1819   -0.0222 C.3       1 <0>         0.5036
     29 F1          4.0857    2.4144    1.2938 F         1 <0>        -0.1687
     30 F2          4.6506    1.4423   -0.6949 F         1 <0>        -0.1713
     31 F3          3.4816    3.4050   -0.6742 F         1 <0>        -0.1727
     32 H2         -0.9591    1.9053    0.0259 H         1 <0>         0.1372
     33 H3          1.1563    3.1654    0.0076 H         1 <0>         0.1473
     34 H4          3.3385   -0.4987   -0.0326 H         1 <0>         0.1481
     35 H5          1.2231   -1.7588   -0.0179 H         1 <0>         0.1452
     36 H6         -1.1443   -1.7285    0.5180 H         1 <0>         0.1332
     37 H7         -2.0551   -0.1993    0.5352 H         1 <0>         0.1109
     38 H8         -2.7351   -2.8985   -1.0242 H         1 <0>         0.1193
     39 H9         -3.7596   -1.4603   -0.7997 H         1 <0>         0.1020
     40 H10        -3.0366   -1.6214   -3.5252 H         1 <0>         0.4176
     41 H11        -4.8349   -2.6545   -5.1949 H         1 <0>         0.1619
     42 H12        -6.1456   -3.3719   -6.7047 H         1 <0>         0.1332
     43 H13        -7.6142   -4.1478   -8.4816 H         1 <0>         0.1436
     44 H14        -9.6159   -5.4588   -9.1802 H         1 <0>         0.1690
     45 H15       -11.8985   -7.4827   -6.3648 H         1 <0>         0.1596
     46 H16       -10.4838   -6.7526   -4.5190 H         1 <0>         0.1435
     47 H17        -8.4666   -5.4519   -3.7650 H         1 <0>         0.1415
     48 H18        -2.7994    0.7132   -1.5668 H         1 <0>         0.4381
     49 H19        -1.2384    0.8381   -2.0794 H         1 <0>         0.4390
     50 H20        -2.3583    0.0853   -3.0249 H         1 <0>         0.4329
@<TRIPOS>BOND
     1    1    6 ar
     2    1    2 ar
     3    1   32 1
     4    2    3 ar
     5    2   33 1
     6    3    4 ar
     7    3   28 1
     8    4    5 ar
     9    4   34 1
    10    5    6 ar
    11    5   35 1
    12    6    7 1
    13    7    8 1
    14    7   36 1
    15    7   37 1
    16    8    9 1
    17    8   10 1
    18    8   27 1
    19   10   11 1
    20   10   38 1
    21   10   39 1
    22   11   12 1
    23   11   40 1
    24   12   16 1
    25   12   13 2
    26   13   14 1
    27   13   41 1
    28   14   15 2
    29   14   17 1
    30   15   16 1
    31   17   26 ar
    32   17   18 ar
    33   18   19 ar
    34   18   42 1
    35   19   20 ar
    36   19   43 1
    37   20   25 ar
    38   20   21 ar
    39   21   22 ar
    40   21   44 1
    41   22   23 ar
    42   23   24 ar
    43   23   45 1
    44   24   25 ar
    45   24   46 1
    46   25   26 ar
    47   26   47 1
    48   27   48 1
    49   27   49 1
    50   27   50 1
    51   28   29 1
    52   28   30 1
    53   28   31 1
@<TRIPOS>MOLECULE
CHEMBL1081105
   51    54     0     0     0
SMALL
USER_CHARGES

@<TRIPOS>ATOM
      1 C1         -0.0167    1.3781    0.0096 C.ar      1 <0>        -0.1424
      2 C2          1.1709    2.0855    0.0021 C.ar      1 <0>        -0.0583
      3 C3          2.3773    1.4107   -0.0130 C.ar      1 <0>        -0.1641
      4 C4          2.3960    0.0285   -0.0201 C.ar      1 <0>        -0.0559
      5 C5          1.2085   -0.6789   -0.0117 C.ar      1 <0>        -0.1034
      6 C6          0.0021   -0.0041    0.0020 C.ar      1 <0>        -0.0979
      7 C7         -1.2926   -0.7753    0.0107 C.3       1 <0>        -0.1034
      8 C8         -1.7450   -1.0285   -1.4288 C.3       1 <0>         0.0364
      9 H1         -0.9463   -1.5264   -1.9784 H         1 <0>         0.1516
     10 C9         -2.9907   -1.9168   -1.4231 C.3       1 <0>        -0.1460
     11 C10        -3.3701   -2.2725   -2.8620 C.3       1 <0>        -0.0632
     12 C11        -4.5971   -3.1475   -2.8563 C.2       1 <0>         0.0553
     13 C12        -5.8704   -2.7192   -2.9111 C.2       1 <0>        -0.2568
     14 C13        -6.7165   -3.8540   -2.8831 C.2       1 <0>         0.1495
     15 N1         -5.9554   -4.9194   -2.8136 N.2       1 <0>        -0.2943
     16 O1         -4.6066   -4.4883   -2.8016 O.3       1 <0>        -0.0661
     17 C14        -8.2000   -3.8400   -2.9249 C.ar      1 <0>        -0.0319
     18 C15        -8.8822   -2.6155   -3.0053 C.ar      1 <0>        -0.0989
     19 C16       -10.2398   -2.5726   -3.0456 C.ar      1 <0>        -0.0770
     20 C17       -10.9782   -3.7671   -3.0066 C.ar      1 <0>        -0.1013
     21 C18       -12.3819   -3.7726   -3.0462 C.ar      1 <0>         0.1470
     22 N2        -13.0337   -4.9111   -3.0079 N.ar      1 <0>        -0.4769
     23 C19       -12.4235   -6.0859   -2.9320 C.ar      1 <0>         0.0853
     24 C20       -11.0663   -6.1891   -2.8879 C.ar      1 <0>        -0.1490
     25 C21       -10.2977   -5.0104   -2.9253 C.ar      1 <0>        -0.0290
     26 C22        -8.8976   -5.0336   -2.8901 C.ar      1 <0>        -0.0592
     27 N3         -2.0599    0.2523   -2.0756 N.4       1 <0>        -0.6419
     28 C23         3.6720    2.1819   -0.0222 C.3       1 <0>         0.5037
     29 F1          4.0857    2.4144    1.2938 F         1 <0>        -0.1692
     30 F2          4.6506    1.4423   -0.6949 F         1 <0>        -0.1715
     31 F3          3.4816    3.4050   -0.6742 F         1 <0>        -0.1730
     32 H2         -0.9591    1.9053    0.0259 H         1 <0>         0.1364
     33 H3          1.1563    3.1654    0.0076 H         1 <0>         0.1465
     34 H4          3.3385   -0.4987   -0.0326 H         1 <0>         0.1474
     35 H5          1.2231   -1.7588   -0.0179 H         1 <0>         0.1447
     36 H6         -1.1443   -1.7285    0.5180 H         1 <0>         0.1287
     37 H7         -2.0551   -0.1993    0.5352 H         1 <0>         0.1062
     38 H8         -2.7831   -2.8302   -0.8657 H         1 <0>         0.1249
     39 H9         -3.8156   -1.3828   -0.9513 H         1 <0>         0.1015
     40 H10        -3.5778   -1.3591   -3.4194 H         1 <0>         0.0946
     41 H11        -2.5452   -2.8065   -3.3338 H         1 <0>         0.1107
     42 H12        -6.1917   -1.6896   -2.9663 H         1 <0>         0.1633
     43 H13        -8.3197   -1.6940   -3.0353 H         1 <0>         0.1316
     44 H14       -10.7499   -1.6227   -3.1071 H         1 <0>         0.1440
     45 H15       -12.9246   -2.8409   -3.1078 H         1 <0>         0.1693
     46 H16       -13.0195   -6.9861   -2.9040 H         1 <0>         0.1605
     47 H17       -10.5892   -7.1560   -2.8254 H         1 <0>         0.1440
     48 H18        -8.3687   -5.9734   -2.8324 H         1 <0>         0.1415
     49 H19        -1.2384    0.8381   -2.0794 H         1 <0>         0.4360
     50 H20        -2.3583    0.0853   -3.0249 H         1 <0>         0.4354
     51 H21        -2.7994    0.7132   -1.5668 H         1 <0>         0.4345
@<TRIPOS>BOND
     1    1    6 ar
     2    1    2 ar
     3    1   32 1
     4    2    3 ar
     5    2   33 1
     6    3    4 ar
     7    3   28 1
     8    4    5 ar
     9    4   34 1
    10    5    6 ar
    11    5   35 1
    12    6    7 1
    13    7    8 1
    14    7   36 1
    15    7   37 1
    16    8    9 1
    17    8   10 1
    18    8   27 1
    19   10   11 1
    20   10   38 1
    21   10   39 1
    22   11   12 1
    23   11   40 1
    24   11   41 1
    25   12   16 1
    26   12   13 2
    27   13   14 1
    28   13   42 1
    29   14   15 2
    30   14   17 1
    31   15   16 1
    32   17   26 ar
    33   17   18 ar
    34   18   19 ar
    35   18   43 1
    36   19   20 ar
    37   19   44 1
    38   20   25 ar
    39   20   21 ar
    40   21   22 ar
    41   21   45 1
    42   22   23 ar
    43   23   24 ar
    44   23   46 1
    45   24   25 ar
    46   24   47 1
    47   25   26 ar
    48   26   48 1
    49   27   49 1
    50   27   50 1
    51   27   51 1
    52   28   29 1
    53   28   30 1
    54   28   31 1
@<TRIPOS>MOLECULE
CHEMBL1081831
   50    53     0     0     0
SMALL
USER_CHARGES

@<TRIPOS>ATOM
      1 C1         -0.0167    1.3781    0.0096 C.ar      1 <0>        -0.1414
      2 C2          1.1709    2.0855    0.0021 C.ar      1 <0>        -0.0582
      3 C3          2.3773    1.4107   -0.0130 C.ar      1 <0>        -0.1630
      4 C4          2.3960    0.0285   -0.0201 C.ar      1 <0>        -0.0559
      5 C5          1.2085   -0.6789   -0.0117 C.ar      1 <0>        -0.1023
      6 C6          0.0021   -0.0041    0.0020 C.ar      1 <0>        -0.0984
      7 C7         -1.2926   -0.7753    0.0107 C.3       1 <0>        -0.0996
      8 C8         -1.7450   -1.0285   -1.4288 C.3       1 <0>         0.0246
      9 H1         -0.9463   -1.5264   -1.9784 H         1 <0>         0.1548
     10 C9         -2.9907   -1.9168   -1.4231 C.3       1 <0>         0.1144
     11 N1         -3.4936   -2.0615   -2.7914 N.pl3     1 <0>        -0.7072
     12 C10        -4.6212   -2.8264   -3.0373 C.2       1 <0>         0.2748
     13 N2         -5.3660   -3.4847   -2.1730 N.2       1 <0>        -0.5597
     14 C11        -6.4184   -4.1746   -2.5639 C.2       1 <0>         0.0759
     15 C12        -6.6938   -4.1704   -3.9049 C.2       1 <0>        -0.1593
     16 S1         -5.3736   -3.1324   -4.5112 S.3       1 <0>         0.1294
     17 C13        -7.7854   -4.8368   -4.6456 C.ar      1 <0>        -0.0261
     18 C14        -8.7315   -5.6048   -3.9635 C.ar      1 <0>        -0.0603
     19 C15        -9.7482   -6.2248   -4.6537 C.ar      1 <0>        -0.1288
     20 C16        -9.8422   -6.0921   -6.0394 C.ar      1 <0>         0.1565
     21 C17        -8.8973   -5.3262   -6.7128 C.ar      1 <0>        -0.1351
     22 C18        -7.8816   -4.6983   -6.0326 C.ar      1 <0>        -0.0543
     23 C19        -9.2710   -5.3803   -8.1766 C.3       1 <0>        -0.1165
     24 C20       -10.5083   -6.2518   -8.2087 C.2       1 <0>         0.5278
     25 O1        -11.1455   -6.5618   -9.1931 O.2       1 <0>        -0.4914
     26 N3        -10.7681   -6.6178   -6.9424 N.am      1 <0>        -0.6605
     27 N4         -2.0599    0.2523   -2.0756 N.4       1 <0>        -0.6401
     28 C21         3.6720    2.1819   -0.0222 C.3       1 <0>         0.5036
     29 F1          4.0857    2.4144    1.2938 F         1 <0>        -0.1689
     30 F2          4.6506    1.4423   -0.6949 F         1 <0>        -0.1715
     31 F3          3.4816    3.4050   -0.6742 F         1 <0>        -0.1729
     32 H2         -0.9591    1.9053    0.0259 H         1 <0>         0.1371
     33 H3          1.1563    3.1654    0.0076 H         1 <0>         0.1470
     34 H4          3.3385   -0.4987   -0.0326 H         1 <0>         0.1478
     35 H5          1.2231   -1.7588   -0.0179 H         1 <0>         0.1451
     36 H6         -1.1443   -1.7285    0.5180 H         1 <0>         0.1325
     37 H7         -2.0551   -0.1993    0.5352 H         1 <0>         0.1102
     38 H8         -2.7351   -2.8985   -1.0242 H         1 <0>         0.1163
     39 H9         -3.7596   -1.4603   -0.7997 H         1 <0>         0.0992
     40 H10        -3.0366   -1.6214   -3.5252 H         1 <0>         0.4098
     41 H11        -7.0334   -4.7169   -1.8609 H         1 <0>         0.1800
     42 H12        -8.6651   -5.7129   -2.8910 H         1 <0>         0.1374
     43 H13       -10.4766   -6.8173   -4.1201 H         1 <0>         0.1370
     44 H14        -7.1573   -4.1032   -6.5691 H         1 <0>         0.1288
     45 H15        -9.4975   -4.3816   -8.5500 H         1 <0>         0.1276
     46 H16        -8.4691   -5.8341   -8.7589 H         1 <0>         0.1278
     47 H17       -11.5137   -7.1823   -6.6850 H         1 <0>         0.4177
     48 H18        -2.7994    0.7132   -1.5668 H         1 <0>         0.4376
     49 H19        -1.2384    0.8381   -2.0794 H         1 <0>         0.4377
     50 H20        -2.3583    0.0853   -3.0249 H         1 <0>         0.4323
@<TRIPOS>BOND
     1    1    6 ar
     2    1    2 ar
     3    1   32 1
     4    2    3 ar
     5    2   33 1
     6    3    4 ar
     7    3   28 1
     8    4    5 ar
     9    4   34 1
    10    5    6 ar
    11    5   35 1
    12    6    7 1
    13    7    8 1
    14    7   36 1
    15    7   37 1
    16    8    9 1
    17    8   10 1
    18    8   27 1
    19   10   11 1
    20   10   38 1
    21   10   39 1
    22   11   12 1
    23   11   40 1
    24   12   16 1
    25   12   13 2
    26   13   14 1
    27   14   15 2
    28   14   41 1
    29   15   16 1
    30   15   17 1
    31   17   22 ar
    32   17   18 ar
    33   18   19 ar
    34   18   42 1
    35   19   20 ar
    36   19   43 1
    37   20   26 1
    38   20   21 ar
    39   21   22 ar
    40   21   23 1
    41   22   44 1
    42   23   24 1
    43   23   45 1
    44   23   46 1
    45   24   25 2
    46   24   26 am
    47   26   47 1
    48   27   48 1
    49   27   49 1
    50   27   50 1
    51   28   29 1
    52   28   30 1
    53   28   31 1
@<TRIPOS>MOLECULE
CHEMBL1081830
   49    52     0     0     0
SMALL
USER_CHARGES

@<TRIPOS>ATOM
      1 C1         -0.0167    1.3781    0.0096 C.ar      1 <0>        -0.1413
      2 C2          1.1709    2.0855    0.0021 C.ar      1 <0>        -0.0582
      3 C3          2.3773    1.4107   -0.0130 C.ar      1 <0>        -0.1629
      4 C4          2.3960    0.0285   -0.0201 C.ar      1 <0>        -0.0559
      5 C5          1.2085   -0.6789   -0.0117 C.ar      1 <0>        -0.1023
      6 C6          0.0021   -0.0041    0.0020 C.ar      1 <0>        -0.0986
      7 C7         -1.2926   -0.7753    0.0107 C.3       1 <0>        -0.0995
      8 C8         -1.7450   -1.0285   -1.4288 C.3       1 <0>         0.0244
      9 H1         -0.9463   -1.5264   -1.9784 H         1 <0>         0.1550
     10 C9         -2.9907   -1.9168   -1.4231 C.3       1 <0>         0.1132
     11 N1         -3.4936   -2.0615   -2.7914 N.pl3     1 <0>        -0.7054
     12 C10        -4.6208   -2.8261   -3.0372 C.2       1 <0>         0.2813
     13 N2         -5.3659   -3.4846   -2.1727 N.2       1 <0>        -0.5627
     14 C11        -6.4178   -4.1742   -2.5632 C.2       1 <0>         0.0969
     15 C12        -6.6934   -4.1702   -3.9047 C.2       1 <0>        -0.1802
     16 S1         -5.3732   -3.1321   -4.5111 S.3       1 <0>         0.1396
     17 C13        -7.7850   -4.8358   -4.6449 C.ar      1 <0>         0.0533
     18 C14        -8.7321   -5.6050   -3.9535 C.ar      1 <0>        -0.1177
     19 C15        -9.7427   -6.2242   -4.6216 C.ar      1 <0>        -0.0184
     20 C16        -9.8473   -6.0980   -6.0151 C.ar      1 <0>        -0.0134
     21 C17        -8.9005   -5.3274   -6.7140 C.ar      1 <0>         0.1204
     22 C18        -7.8749   -4.6939   -6.0256 C.ar      1 <0>        -0.1043
     23 N3         -9.2607   -5.3917   -8.0400 N.pl3     1 <0>        -0.2495
     24 N4        -10.4086   -6.1954   -8.1016 N.2       1 <0>        -0.0274
     25 N5        -10.7214   -6.5870   -6.9171 N.2       1 <0>        -0.1999
     26 N6         -8.6258   -4.7909   -9.0898 N.3       1 <0>        -0.5576
     27 N7         -2.0599    0.2523   -2.0756 N.4       1 <0>        -0.6403
     28 C19         3.6720    2.1819   -0.0222 C.3       1 <0>         0.5036
     29 F1          4.0857    2.4144    1.2938 F         1 <0>        -0.1688
     30 F2          4.6506    1.4423   -0.6949 F         1 <0>        -0.1715
     31 F3          3.4816    3.4050   -0.6742 F         1 <0>        -0.1729
     32 H2         -0.9591    1.9053    0.0259 H         1 <0>         0.1371
     33 H3          1.1563    3.1654    0.0076 H         1 <0>         0.1471
     34 H4          3.3385   -0.4987   -0.0326 H         1 <0>         0.1478
     35 H5          1.2231   -1.7588   -0.0179 H         1 <0>         0.1451
     36 H6         -1.1443   -1.7285    0.5180 H         1 <0>         0.1328
     37 H7         -2.0551   -0.1993    0.5352 H         1 <0>         0.1105
     38 H8         -2.7351   -2.8985   -1.0242 H         1 <0>         0.1175
     39 H9         -3.7596   -1.4603   -0.7997 H         1 <0>         0.1005
     40 H10        -3.0366   -1.6214   -3.5252 H         1 <0>         0.4106
     41 H11        -7.0327   -4.7165   -1.8602 H         1 <0>         0.1843
     42 H12        -8.6585   -5.7071   -2.8808 H         1 <0>         0.1440
     43 H13       -10.4657   -6.8145   -4.0783 H         1 <0>         0.1503
     44 H14        -7.1492   -4.0980   -6.5591 H         1 <0>         0.1354
     45 H15        -7.9170   -5.3953   -9.4775 H         1 <0>         0.3654
     46 H16        -9.2865   -4.5079   -9.7979 H         1 <0>         0.3845
     47 H17        -1.2384    0.8381   -2.0794 H         1 <0>         0.4380
     48 H18        -2.3583    0.0853   -3.0249 H         1 <0>         0.4321
     49 H19        -2.7994    0.7132   -1.5668 H         1 <0>         0.4379
@<TRIPOS>BOND
     1    1    6 ar
     2    1    2 ar
     3    1   32 1
     4    2    3 ar
     5    2   33 1
     6    3    4 ar
     7    3   28 1
     8    4    5 ar
     9    4   34 1
    10    5    6 ar
    11    5   35 1
    12    6    7 1
    13    7    8 1
    14    7   36 1
    15    7   37 1
    16    8    9 1
    17    8   10 1
    18    8   27 1
    19   10   11 1
    20   10   38 1
    21   10   39 1
    22   11   12 1
    23   11   40 1
    24   12   16 1
    25   12   13 2
    26   13   14 1
    27   14   15 2
    28   14   41 1
    29   15   16 1
    30   15   17 1
    31   17   22 ar
    32   17   18 ar
    33   18   19 ar
    34   18   42 1
    35   19   20 ar
    36   19   43 1
    37   20   25 1
    38   20   21 ar
    39   21   22 ar
    40   21   23 1
    41   22   44 1
    42   23   24 1
    43   23   26 1
    44   24   25 2
    45   26   45 1
    46   26   46 1
    47   27   47 1
    48   27   48 1
    49   27   49 1
    50   28   29 1
    51   28   30 1
    52   28   31 1
@<TRIPOS>MOLECULE
CHEMBL1081830
   50    53     0     0     0
SMALL
USER_CHARGES

@<TRIPOS>ATOM
      1 C1         -0.0167    1.3781    0.0096 C.ar      1 <0>        -0.1414
      2 C2          1.1709    2.0855    0.0021 C.ar      1 <0>        -0.0575
      3 C3          2.3773    1.4107   -0.0130 C.ar      1 <0>        -0.1598
      4 C4          2.3960    0.0285   -0.0201 C.ar      1 <0>        -0.0553
      5 C5          1.2085   -0.6789   -0.0117 C.ar      1 <0>        -0.1021
      6 C6          0.0021   -0.0041    0.0020 C.ar      1 <0>        -0.1027
      7 C7         -1.2926   -0.7753    0.0107 C.3       1 <0>        -0.0986
      8 C8         -1.7450   -1.0285   -1.4288 C.3       1 <0>         0.0239
      9 H1         -0.9463   -1.5264   -1.9784 H         1 <0>         0.1567
     10 C9         -2.9907   -1.9168   -1.4231 C.3       1 <0>         0.1084
     11 N1         -3.4936   -2.0615   -2.7914 N.pl3     1 <0>        -0.6972
     12 C10        -4.6208   -2.8261   -3.0372 C.2       1 <0>         0.3133
     13 N2         -5.3659   -3.4846   -2.1727 N.2       1 <0>        -0.5707
     14 C11        -6.4178   -4.1742   -2.5632 C.2       1 <0>         0.1466
     15 C12        -6.6934   -4.1702   -3.9047 C.2       1 <0>        -0.2467
     16 S1         -5.3732   -3.1321   -4.5111 S.3       1 <0>         0.1612
     17 C13        -7.7850   -4.8358   -4.6449 C.ar      1 <0>         0.1115
     18 C14        -8.7321   -5.6050   -3.9535 C.ar      1 <0>        -0.0632
     19 C15        -9.7427   -6.2242   -4.6216 C.ar      1 <0>        -0.0479
     20 C16        -9.8473   -6.0980   -6.0151 C.ar      1 <0>         0.0311
     21 C17        -8.9005   -5.3274   -6.7140 C.ar      1 <0>         0.1550
     22 C18        -7.8749   -4.6939   -6.0256 C.ar      1 <0>        -0.1050
     23 N3         -9.2607   -5.3917   -8.0400 N.pl3     1 <0>        -0.1434
     24 N4        -10.4086   -6.1954   -8.1016 N.2       1 <0>         0.0476
     25 N5        -10.7214   -6.5870   -6.9171 N.pl3     1 <0>        -0.2560
     26 N6         -8.6258   -4.7909   -9.0898 N.3       1 <0>        -0.5241
     27 N7         -2.0599    0.2523   -2.0756 N.4       1 <0>        -0.6410
     28 C19         3.6720    2.1819   -0.0222 C.3       1 <0>         0.5030
     29 F1          4.0857    2.4144    1.2938 F         1 <0>        -0.1676
     30 F2          4.6506    1.4423   -0.6949 F         1 <0>        -0.1709
     31 F3          3.4816    3.4050   -0.6742 F         1 <0>        -0.1723
     32 H2         -0.9591    1.9053    0.0259 H         1 <0>         0.1368
     33 H3          1.1563    3.1654    0.0076 H         1 <0>         0.1481
     34 H4          3.3385   -0.4987   -0.0326 H         1 <0>         0.1489
     35 H5          1.2231   -1.7588   -0.0179 H         1 <0>         0.1448
     36 H6         -1.1443   -1.7285    0.5180 H         1 <0>         0.1333
     37 H7         -2.0551   -0.1993    0.5352 H         1 <0>         0.1110
     38 H8         -2.7351   -2.8985   -1.0242 H         1 <0>         0.1226
     39 H9         -3.7596   -1.4603   -0.7997 H         1 <0>         0.1057
     40 H10        -3.0366   -1.6214   -3.5252 H         1 <0>         0.4151
     41 H11        -7.0327   -4.7165   -1.8602 H         1 <0>         0.1887
     42 H12        -8.6585   -5.7071   -2.8808 H         1 <0>         0.1694
     43 H13       -10.4657   -6.8145   -4.0783 H         1 <0>         0.1743
     44 H14        -7.1492   -4.0980   -6.5591 H         1 <0>         0.1621
     45 H15        -7.9170   -5.3953   -9.4775 H         1 <0>         0.3961
     46 H16        -9.2865   -4.5079   -9.7979 H         1 <0>         0.4074
     47 H17        -2.3583    0.0853   -3.0249 H         1 <0>         0.4302
     48 H18        -2.7994    0.7132   -1.5668 H         1 <0>         0.4384
     49 H19        -1.2384    0.8381   -2.0794 H         1 <0>         0.4412
     50 H20       -11.4789   -7.1539   -6.7033 H         1 <0>         0.4914
@<TRIPOS>BOND
     1    1    6 ar
     2    1    2 ar
     3    1   32 1
     4    2    3 ar
     5    2   33 1
     6    3    4 ar
     7    3   28 1
     8    4    5 ar
     9    4   34 1
    10    5    6 ar
    11    5   35 1
    12    6    7 1
    13    7    8 1
    14    7   36 1
    15    7   37 1
    16    8    9 1
    17    8   10 1
    18    8   27 1
    19   10   11 1
    20   10   38 1
    21   10   39 1
    22   11   12 1
    23   11   40 1
    24   12   16 1
    25   12   13 2
    26   13   14 1
    27   14   15 2
    28   14   41 1
    29   15   16 1
    30   15   17 1
    31   17   22 ar
    32   17   18 ar
    33   18   19 ar
    34   18   42 1
    35   19   20 ar
    36   19   43 1
    37   20   25 1
    38   20   21 ar
    39   21   22 ar
    40   21   23 1
    41   22   44 1
    42   23   24 1
    43   23   26 1
    44   24   25 2
    45   25   50 1
    46   26   45 1
    47   26   46 1
    48   27   47 1
    49   27   48 1
    50   27   49 1
    51   28   29 1
    52   28   30 1
    53   28   31 1
@<TRIPOS>MOLECULE
CHEMBL476577
   58    61     0     0     0
SMALL
USER_CHARGES

@<TRIPOS>ATOM
      1 C1         -0.6573    1.2902   -0.1694 C.3       1 <0>        -0.1222
      2 C2         -0.3097   -0.1710   -0.0456 C.cat     1 <0>         0.3277
      3 N1          0.0959   -0.9394   -1.0216 N.pl3     1 <0>        -0.4762
      4 C3          0.3134   -2.1742   -0.5586 C.2       1 <0>         0.0648
      5 C4          0.0292   -2.1769    0.7736 C.2       1 <0>         0.0809
      6 N2         -0.3618   -0.8945    1.0915 N.pl3     1 <0>        -0.3850
      7 C5         -0.7619   -0.4091    2.4146 C.3       1 <0>         0.1054
      8 C6          0.1004    0.7952    2.7983 C.3       1 <0>        -0.1769
      9 C7         -2.2337    0.0073    2.3815 C.3       1 <0>        -0.1780
     10 C8          0.1257   -3.3258    1.6957 C.ar      1 <0>         0.2423
     11 C9          0.6879   -3.1708    2.9709 C.ar      1 <0>        -0.0585
     12 C10         0.7556   -4.2774    3.7989 C.ar      1 <0>         0.1979
     13 N3          0.2913   -5.4403    3.3659 N.ar      1 <0>        -0.5111
     14 C11        -0.2349   -5.5582    2.1558 C.ar      1 <0>         0.5728
     15 N4         -0.3252   -4.5266    1.3317 N.ar      1 <0>        -0.5242
     16 N5         -0.7082   -6.7942    1.7436 N.pl3     1 <0>        -0.6131
     17 C12        -0.7301   -7.8703    2.6402 C.ar      1 <0>         0.0757
     18 C13        -0.9898   -7.6476    3.9860 C.ar      1 <0>        -0.0552
     19 C14        -1.0114   -8.7082    4.8698 C.ar      1 <0>        -0.1766
     20 C15        -0.7740   -9.9979    4.4126 C.ar      1 <0>         0.2529
     21 C16        -0.5148  -10.2207    3.0666 C.ar      1 <0>        -0.1734
     22 C17        -0.4979   -9.1605    2.1821 C.ar      1 <0>        -0.0806
     23 N6         -0.7955  -11.0730    5.3084 N.pl3     1 <0>        -0.6626
     24 C18        -1.0287  -11.2455    6.7502 C.3       1 <0>         0.1034
     25 C19        -1.5098  -12.6712    6.4468 C.3       1 <0>         0.1063
     26 C20        -0.6012  -12.5281    5.2211 C.3       1 <0>         0.0959
     27 N7         -2.9355  -12.7681    6.1240 N.am      1 <0>        -0.7116
     28 C21        -3.5956  -13.9252    6.3287 C.2       1 <0>         0.5150
     29 O1         -3.0093  -14.8862    6.7801 O.2       1 <0>        -0.5392
     30 C22        -5.0622  -14.0249    5.9967 C.3       1 <0>        -0.1718
     31 F1          1.1525   -1.9703    3.3810 F         1 <0>        -0.1167
     32 H1          0.2079    1.8939    0.1045 H         1 <0>         0.1264
     33 H2         -0.9426    1.5099   -1.1982 H         1 <0>         0.1203
     34 H3         -1.4885    1.5236    0.4959 H         1 <0>         0.1213
     35 H4          0.6535   -3.0198   -1.1380 H         1 <0>         0.2311
     36 H5         -0.6252   -1.2026    3.1493 H         1 <0>         0.1335
     37 H6          1.1489    0.4985    2.8219 H         1 <0>         0.0791
     38 H7         -0.0363    1.5886    2.0635 H         1 <0>         0.0768
     39 H8         -0.1973    1.1563    3.7827 H         1 <0>         0.1042
     40 H9         -2.8346   -0.8128    1.9883 H         1 <0>         0.0738
     41 H10        -2.5657    0.2494    3.3911 H         1 <0>         0.1042
     42 H11        -2.3496    0.8819    1.7414 H         1 <0>         0.0780
     43 H12         1.1827   -4.1941    4.7874 H         1 <0>         0.1959
     44 H13        -1.0241   -6.9139    0.8344 H         1 <0>         0.4271
     45 H14        -1.1744   -6.6446    4.3416 H         1 <0>         0.1294
     46 H15        -1.2127   -8.5349    5.9166 H         1 <0>         0.1239
     47 H16        -0.3301  -11.2236    2.7110 H         1 <0>         0.1258
     48 H17        -0.3000   -9.3342    1.1347 H         1 <0>         0.1271
     49 H18        -0.1156  -11.2127    7.3446 H         1 <0>         0.0954
     50 H19        -1.8119  -10.5976    7.1438 H         1 <0>         0.0789
     51 H20        -1.1771  -13.4180    7.1676 H         1 <0>         0.1282
     52 H21        -1.0216  -12.9687    4.3171 H         1 <0>         0.0773
     53 H22         0.4270  -12.8405    5.4041 H         1 <0>         0.0917
     54 H23        -3.4044  -11.9995    5.7630 H         1 <0>         0.4041
     55 H24        -5.4120  -13.0695    5.6058 H         1 <0>         0.0754
     56 H25        -5.2130  -14.8015    5.2468 H         1 <0>         0.0981
     57 H26        -5.6223  -14.2760    6.8974 H         1 <0>         0.0988
     58 H27         0.2199   -0.6570   -1.9412 H         1 <0>         0.4663
@<TRIPOS>BOND
     1    1    2 1
     2    1   32 1
     3    1   33 1
     4    1   34 1
     5    2    6 1
     6    2    3 2
     7    3    4 1
     8    3   58 1
     9    4    5 2
    10    4   35 1
    11    5    6 1
    12    5   10 1
    13    6    7 1
    14    7    8 1
    15    7    9 1
    16    7   36 1
    17    8   37 1
    18    8   38 1
    19    8   39 1
    20    9   40 1
    21    9   41 1
    22    9   42 1
    23   10   15 ar
    24   10   11 ar
    25   11   12 ar
    26   11   31 1
    27   12   13 ar
    28   12   43 1
    29   13   14 ar
    30   14   15 ar
    31   14   16 1
    32   16   17 1
    33   16   44 1
    34   17   22 ar
    35   17   18 ar
    36   18   19 ar
    37   18   45 1
    38   19   20 ar
    39   19   46 1
    40   20   21 ar
    41   20   23 1
    42   21   22 ar
    43   21   47 1
    44   22   48 1
    45   23   26 1
    46   23   24 1
    47   24   25 1
    48   24   49 1
    49   24   50 1
    50   25   26 1
    51   25   27 1
    52   25   51 1
    53   26   52 1
    54   26   53 1
    55   27   28 am
    56   27   54 1
    57   28   29 2
    58   28   30 1
    59   30   55 1
    60   30   56 1
    61   30   57 1
@<TRIPOS>MOLECULE
CHEMBL476577
   57    60     0     0     0
SMALL
USER_CHARGES

@<TRIPOS>ATOM
      1 C1         -0.6573    1.2901   -0.1695 C.3       1 <0>        -0.0795
      2 C2         -0.3097   -0.1710   -0.0457 C.2       1 <0>         0.2381
      3 N1          0.0959   -0.9395   -1.0216 N.2       1 <0>        -0.4923
      4 C3          0.3134   -2.1743   -0.5586 C.2       1 <0>         0.0538
      5 C4          0.0292   -2.1769    0.7737 C.2       1 <0>        -0.0216
      6 N2         -0.3618   -0.8945    1.0915 N.pl3     1 <0>        -0.4309
      7 C5         -0.7618   -0.4091    2.4146 C.3       1 <0>         0.1151
      8 C6          0.1004    0.7952    2.7982 C.3       1 <0>        -0.1669
      9 C7         -2.2337    0.0073    2.3815 C.3       1 <0>        -0.1702
     10 C8          0.1258   -3.3258    1.6958 C.ar      1 <0>         0.2859
     11 C9          0.6880   -3.1708    2.9710 C.ar      1 <0>        -0.0695
     12 C10         0.7557   -4.2773    3.7991 C.ar      1 <0>         0.1796
     13 N3          0.2914   -5.4402    3.3661 N.ar      1 <0>        -0.5332
     14 C11        -0.2349   -5.5582    2.1560 C.ar      1 <0>         0.5637
     15 N4         -0.3252   -4.5266    1.3319 N.ar      1 <0>        -0.5287
     16 N5         -0.7081   -6.7942    1.7439 N.pl3     1 <0>        -0.6271
     17 C12        -0.7300   -7.8703    2.6405 C.ar      1 <0>         0.0987
     18 C13        -0.9897   -7.6475    3.9863 C.ar      1 <0>        -0.0601
     19 C14        -1.0113   -8.7081    4.8701 C.ar      1 <0>        -0.1737
     20 C15        -0.7739   -9.9978    4.4130 C.ar      1 <0>         0.2405
     21 C16        -0.5147  -10.2206    3.0670 C.ar      1 <0>        -0.1719
     22 C17        -0.4978   -9.1605    2.1825 C.ar      1 <0>        -0.0905
     23 N6         -0.7953  -11.0728    5.3089 N.pl3     1 <0>        -0.6649
     24 C18        -1.0285  -11.2453    6.7506 C.3       1 <0>         0.1047
     25 C19        -1.5096  -12.6710    6.4472 C.3       1 <0>         0.1056
     26 C20        -0.6010  -12.5280    5.2216 C.3       1 <0>         0.0976
     27 N7         -2.9353  -12.7679    6.1245 N.am      1 <0>        -0.7104
     28 C21        -3.5954  -13.9250    6.3293 C.2       1 <0>         0.5150
     29 O1         -3.0091  -14.8860    6.7806 O.2       1 <0>        -0.5422
     30 C22        -5.0620  -14.0248    5.9973 C.3       1 <0>        -0.1735
     31 F1          1.1526   -1.9703    3.3810 F         1 <0>        -0.1194
     32 H1          0.2079    1.8939    0.1044 H         1 <0>         0.0854
     33 H2         -0.9426    1.5098   -1.1983 H         1 <0>         0.0948
     34 H3         -1.4885    1.5235    0.4958 H         1 <0>         0.0812
     35 H4          0.6535   -3.0199   -1.1379 H         1 <0>         0.1777
     36 H5         -0.6252   -1.2026    3.1494 H         1 <0>         0.1059
     37 H6         -0.0363    1.5887    2.0634 H         1 <0>         0.0716
     38 H7         -0.1973    1.1564    3.7826 H         1 <0>         0.0807
     39 H8          1.1490    0.4985    2.8218 H         1 <0>         0.0686
     40 H9         -2.8346   -0.8128    1.9884 H         1 <0>         0.0636
     41 H10        -2.5656    0.2495    3.3911 H         1 <0>         0.0809
     42 H11        -2.3495    0.8819    1.7414 H         1 <0>         0.0722
     43 H12         1.1828   -4.1940    4.7875 H         1 <0>         0.1845
     44 H13        -1.0241   -6.9139    0.8346 H         1 <0>         0.4249
     45 H14        -1.1743   -6.6445    4.3418 H         1 <0>         0.1315
     46 H15        -1.2125   -8.5347    5.9169 H         1 <0>         0.1207
     47 H16        -0.3300  -11.2235    2.7114 H         1 <0>         0.1220
     48 H17        -0.3000   -9.3342    1.1350 H         1 <0>         0.1259
     49 H18        -0.1155  -11.2125    7.3450 H         1 <0>         0.0923
     50 H19        -1.8118  -10.5974    7.1442 H         1 <0>         0.0772
     51 H20        -1.1769  -13.4178    7.1681 H         1 <0>         0.1258
     52 H21        -1.0215  -12.9686    4.3176 H         1 <0>         0.0752
     53 H22         0.4271  -12.8404    5.4046 H         1 <0>         0.0883
     54 H23        -3.4043  -11.9994    5.7635 H         1 <0>         0.4052
     55 H24        -5.1793  -14.3523    4.9643 H         1 <0>         0.0956
     56 H25        -5.5370  -14.7454    6.6630 H         1 <0>         0.0961
     57 H26        -5.5305  -13.0489    6.1244 H         1 <0>         0.0805
@<TRIPOS>BOND
     1    1    2 1
     2    1   32 1
     3    1   33 1
     4    1   34 1
     5    2    6 1
     6    2    3 2
     7    3    4 1
     8    4    5 2
     9    4   35 1
    10    5    6 1
    11    5   10 1
    12    6    7 1
    13    7    8 1
    14    7    9 1
    15    7   36 1
    16    8   37 1
    17    8   38 1
    18    8   39 1
    19    9   40 1
    20    9   41 1
    21    9   42 1
    22   10   15 ar
    23   10   11 ar
    24   11   12 ar
    25   11   31 1
    26   12   13 ar
    27   12   43 1
    28   13   14 ar
    29   14   15 ar
    30   14   16 1
    31   16   17 1
    32   16   44 1
    33   17   22 ar
    34   17   18 ar
    35   18   19 ar
    36   18   45 1
    37   19   20 ar
    38   19   46 1
    39   20   21 ar
    40   20   23 1
    41   21   22 ar
    42   21   47 1
    43   22   48 1
    44   23   26 1
    45   23   24 1
    46   24   25 1
    47   24   49 1
    48   24   50 1
    49   25   26 1
    50   25   27 1
    51   25   51 1
    52   26   52 1
    53   26   53 1
    54   27   28 am
    55   27   54 1
    56   28   29 2
    57   28   30 1
    58   30   55 1
    59   30   56 1
    60   30   57 1
@<TRIPOS>MOLECULE
CHEMBL515001
   55    58     0     0     0
SMALL
USER_CHARGES

@<TRIPOS>ATOM
      1 C1         -0.6257    1.2462   -0.0924 C.3       1 <0>        -0.1222
      2 C2         -0.2831   -0.2189   -0.0084 C.cat     1 <0>         0.3278
      3 N1          0.1093   -0.9646   -1.0071 N.pl3     1 <0>        -0.4762
      4 C3          0.3263   -2.2113   -0.5771 C.2       1 <0>         0.0648
      5 C4          0.0557   -2.2459    0.7575 C.2       1 <0>         0.0809
      6 N2         -0.3266   -0.9702    1.1111 N.pl3     1 <0>        -0.3851
      7 C5         -0.7111   -0.5162    2.4498 C.3       1 <0>         0.1054
      8 C6          0.1599    0.6749    2.8541 C.3       1 <0>        -0.1769
      9 C7         -2.1815   -0.0935    2.4422 C.3       1 <0>        -0.1781
     10 C8          0.1568   -3.4177    1.6499 C.ar      1 <0>         0.2424
     11 C9          0.7327   -3.2966    2.9226 C.ar      1 <0>        -0.0586
     12 C10         0.8042   -4.4236    3.7223 C.ar      1 <0>         0.1979
     13 N3          0.3305   -5.5735    3.2654 N.ar      1 <0>        -0.5113
     14 C11        -0.2086   -5.6593    2.0583 C.ar      1 <0>         0.5729
     15 N4         -0.3030   -4.6072    1.2610 N.ar      1 <0>        -0.5242
     16 N5         -0.6913   -6.8828    1.6206 N.pl3     1 <0>        -0.6131
     17 C12        -0.7087   -7.9808    2.4905 C.ar      1 <0>         0.0765
     18 C13        -0.9536   -7.7903    3.8440 C.ar      1 <0>        -0.0548
     19 C14        -0.9707   -8.8725    4.7015 C.ar      1 <0>        -0.1816
     20 C15        -0.7434  -10.1514    4.2101 C.ar      1 <0>         0.2214
     21 C16        -0.4990  -10.3418    2.8564 C.ar      1 <0>        -0.1793
     22 C17        -0.4866   -9.2601    1.9983 C.ar      1 <0>        -0.0803
     23 N6         -0.7603  -11.2482    5.0792 N.pl3     1 <0>        -0.6302
     24 C18        -0.3950  -12.5936    4.6082 C.3       1 <0>         0.0846
     25 C19         0.6470  -13.1761    5.5700 C.3       1 <0>         0.0452
     26 O1          0.1549  -13.0841    6.9091 O.3       1 <0>        -0.3769
     27 C20        -0.0650  -11.7458    7.3612 C.3       1 <0>         0.0450
     28 C21        -1.1380  -11.0890    6.4925 C.3       1 <0>         0.0844
     29 F1          1.2066   -2.1085    3.3574 F         1 <0>        -0.1168
     30 H1          0.2447    1.8395    0.1876 H         1 <0>         0.1264
     31 H2         -0.9205    1.4925   -1.1124 H         1 <0>         0.1203
     32 H3         -1.4492    1.4663    0.5870 H         1 <0>         0.1213
     33 H4          0.6569   -3.0437   -1.1807 H         1 <0>         0.2311
     34 H5         -0.5702   -1.3281    3.1632 H         1 <0>         0.1335
     35 H6          1.2075    0.3737    2.8595 H         1 <0>         0.0791
     36 H7          0.0190    1.4868    2.1407 H         1 <0>         0.0768
     37 H8         -0.1262    1.0127    3.8502 H         1 <0>         0.1042
     38 H9         -2.7897   -0.9012    2.0351 H         1 <0>         0.0738
     39 H10        -2.5021    0.1248    3.4609 H         1 <0>         0.1043
     40 H11        -2.3003    0.7972    1.8252 H         1 <0>         0.0780
     41 H12         1.2417   -4.3665    4.7080 H         1 <0>         0.1959
     42 H13        -1.0171   -6.9787    0.7120 H         1 <0>         0.4271
     43 H14        -1.1303   -6.7958    4.2261 H         1 <0>         0.1295
     44 H15        -1.1605   -8.7243    5.7543 H         1 <0>         0.1286
     45 H16        -0.3222  -11.3363    2.4742 H         1 <0>         0.1307
     46 H17        -0.3003   -9.4086    0.9449 H         1 <0>         0.1274
     47 H18        -1.2793  -13.2307    4.5953 H         1 <0>         0.0744
     48 H19         0.0267  -12.5294    3.6051 H         1 <0>         0.0931
     49 H20         0.8290  -14.2213    5.3200 H         1 <0>         0.1077
     50 H21         1.5765  -12.6133    5.4842 H         1 <0>         0.0563
     51 H22        -0.3952  -11.7620    8.3998 H         1 <0>         0.1074
     52 H23         0.8619  -11.1778    7.2819 H         1 <0>         0.0558
     53 H24        -1.2082  -10.0290    6.7366 H         1 <0>         0.0931
     54 H25        -2.0984  -11.5721    6.6725 H         1 <0>         0.0741
     55 H26         0.2251   -0.6600   -1.9207 H         1 <0>         0.4663
@<TRIPOS>BOND
     1    1    2 1
     2    1   30 1
     3    1   31 1
     4    1   32 1
     5    2    6 1
     6    2    3 2
     7    3    4 1
     8    3   55 1
     9    4    5 2
    10    4   33 1
    11    5    6 1
    12    5   10 1
    13    6    7 1
    14    7    8 1
    15    7    9 1
    16    7   34 1
    17    8   35 1
    18    8   36 1
    19    8   37 1
    20    9   38 1
    21    9   39 1
    22    9   40 1
    23   10   15 ar
    24   10   11 ar
    25   11   12 ar
    26   11   29 1
    27   12   13 ar
    28   12   41 1
    29   13   14 ar
    30   14   15 ar
    31   14   16 1
    32   16   17 1
    33   16   42 1
    34   17   22 ar
    35   17   18 ar
    36   18   19 ar
    37   18   43 1
    38   19   20 ar
    39   19   44 1
    40   20   21 ar
    41   20   23 1
    42   21   22 ar
    43   21   45 1
    44   22   46 1
    45   23   28 1
    46   23   24 1
    47   24   25 1
    48   24   47 1
    49   24   48 1
    50   25   26 1
    51   25   49 1
    52   25   50 1
    53   26   27 1
    54   27   28 1
    55   27   51 1
    56   27   52 1
    57   28   53 1
    58   28   54 1
@<TRIPOS>MOLECULE
CHEMBL515001
   54    57     0     0     0
SMALL
USER_CHARGES

@<TRIPOS>ATOM
      1 C1         -0.6257    1.2461   -0.0924 C.3       1 <0>        -0.0794
      2 C2         -0.2831   -0.2190   -0.0084 C.2       1 <0>         0.2380
      3 N1          0.1093   -0.9647   -1.0071 N.2       1 <0>        -0.4923
      4 C3          0.3263   -2.2114   -0.5771 C.2       1 <0>         0.0538
      5 C4          0.0557   -2.2460    0.7576 C.2       1 <0>        -0.0215
      6 N2         -0.3266   -0.9703    1.1111 N.pl3     1 <0>        -0.4310
      7 C5         -0.7111   -0.5162    2.4498 C.3       1 <0>         0.1151
      8 C6          0.1599    0.6749    2.8541 C.3       1 <0>        -0.1669
      9 C7         -2.1815   -0.0935    2.4422 C.3       1 <0>        -0.1702
     10 C8          0.1568   -3.4177    1.6500 C.ar      1 <0>         0.2859
     11 C9          0.7327   -3.2966    2.9227 C.ar      1 <0>        -0.0695
     12 C10         0.8043   -4.4235    3.7223 C.ar      1 <0>         0.1794
     13 N3          0.3306   -5.5735    3.2656 N.ar      1 <0>        -0.5332
     14 C11        -0.2086   -5.6593    2.0585 C.ar      1 <0>         0.5637
     15 N4         -0.3029   -4.6073    1.2611 N.ar      1 <0>        -0.5286
     16 N5         -0.6913   -6.8829    1.6208 N.pl3     1 <0>        -0.6272
     17 C12        -0.7086   -7.9808    2.4907 C.ar      1 <0>         0.0993
     18 C13        -0.9535   -7.7903    3.8442 C.ar      1 <0>        -0.0596
     19 C14        -0.9706   -8.8724    4.7017 C.ar      1 <0>        -0.1788
     20 C15        -0.7433  -10.1513    4.2104 C.ar      1 <0>         0.2090
     21 C16        -0.4989  -10.3418    2.8567 C.ar      1 <0>        -0.1779
     22 C17        -0.4866   -9.2601    1.9985 C.ar      1 <0>        -0.0903
     23 N6         -0.7602  -11.2481    5.0795 N.pl3     1 <0>        -0.6339
     24 C18        -0.3948  -12.5935    4.6086 C.3       1 <0>         0.0871
     25 C19         0.6472  -13.1760    5.5703 C.3       1 <0>         0.0453
     26 O1          0.1551  -13.0840    6.9094 O.3       1 <0>        -0.3793
     27 C20        -0.0649  -11.7457    7.3615 C.3       1 <0>         0.0451
     28 C21        -1.1379  -11.0889    6.4928 C.3       1 <0>         0.0864
     29 F1          1.2066   -2.1085    3.3575 F         1 <0>        -0.1195
     30 H1          0.2447    1.8394    0.1875 H         1 <0>         0.0854
     31 H2         -0.9205    1.4924   -1.1125 H         1 <0>         0.0948
     32 H3         -1.4492    1.4662    0.5869 H         1 <0>         0.0812
     33 H4          0.6569   -3.0438   -1.1807 H         1 <0>         0.1778
     34 H5         -0.5701   -1.3281    3.1633 H         1 <0>         0.1059
     35 H6          0.0190    1.4868    2.1406 H         1 <0>         0.0716
     36 H7         -0.1261    1.0127    3.8501 H         1 <0>         0.0807
     37 H8          1.2075    0.3737    2.8595 H         1 <0>         0.0685
     38 H9         -2.7897   -0.9013    2.0352 H         1 <0>         0.0636
     39 H10        -2.5021    0.1248    3.4609 H         1 <0>         0.0809
     40 H11        -2.3003    0.7972    1.8252 H         1 <0>         0.0722
     41 H12         1.2418   -4.3665    4.7081 H         1 <0>         0.1845
     42 H13        -1.0170   -6.9788    0.7122 H         1 <0>         0.4249
     43 H14        -1.1302   -6.7958    4.2263 H         1 <0>         0.1314
     44 H15        -1.1604   -8.7242    5.7545 H         1 <0>         0.1254
     45 H16        -0.3221  -11.3363    2.4745 H         1 <0>         0.1269
     46 H17        -0.3002   -9.4086    0.9451 H         1 <0>         0.1261
     47 H18        -1.2791  -13.2307    4.5956 H         1 <0>         0.0708
     48 H19         0.0268  -12.5294    3.6055 H         1 <0>         0.0923
     49 H20         0.8292  -14.2212    5.3203 H         1 <0>         0.1052
     50 H21         1.5767  -12.6132    5.4845 H         1 <0>         0.0560
     51 H22        -0.3951  -11.7619    8.4001 H         1 <0>         0.1053
     52 H23         0.8620  -11.1777    7.2822 H         1 <0>         0.0557
     53 H24        -1.2081  -10.0290    6.7369 H         1 <0>         0.0929
     54 H25        -2.0983  -11.5720    6.6728 H         1 <0>         0.0706
@<TRIPOS>BOND
     1    1    2 1
     2    1   30 1
     3    1   31 1
     4    1   32 1
     5    2    6 1
     6    2    3 2
     7    3    4 1
     8    4    5 2
     9    4   33 1
    10    5    6 1
    11    5   10 1
    12    6    7 1
    13    7    8 1
    14    7    9 1
    15    7   34 1
    16    8   35 1
    17    8   36 1
    18    8   37 1
    19    9   38 1
    20    9   39 1
    21    9   40 1
    22   10   15 ar
    23   10   11 ar
    24   11   12 ar
    25   11   29 1
    26   12   13 ar
    27   12   41 1
    28   13   14 ar
    29   14   15 ar
    30   14   16 1
    31   16   17 1
    32   16   42 1
    33   17   22 ar
    34   17   18 ar
    35   18   19 ar
    36   18   43 1
    37   19   20 ar
    38   19   44 1
    39   20   21 ar
    40   20   23 1
    41   21   22 ar
    42   21   45 1
    43   22   46 1
    44   23   28 1
    45   23   24 1
    46   24   25 1
    47   24   47 1
    48   24   48 1
    49   25   26 1
    50   25   49 1
    51   25   50 1
    52   26   27 1
    53   27   28 1
    54   27   51 1
    55   27   52 1
    56   28   53 1
    57   28   54 1
@<TRIPOS>MOLECULE
CHEMBL1081263
   50    53     0     0     0
SMALL
USER_CHARGES

@<TRIPOS>ATOM
      1 C1         -0.0167    1.3781    0.0096 C.ar      1 <0>        -0.1414
      2 C2          1.1709    2.0855    0.0021 C.ar      1 <0>        -0.0581
      3 C3          2.3773    1.4107   -0.0130 C.ar      1 <0>        -0.1628
      4 C4          2.3960    0.0285   -0.0201 C.ar      1 <0>        -0.0559
      5 C5          1.2085   -0.6789   -0.0117 C.ar      1 <0>        -0.1023
      6 C6          0.0021   -0.0041    0.0020 C.ar      1 <0>        -0.0986
      7 C7         -1.2926   -0.7753    0.0107 C.3       1 <0>        -0.0995
      8 C8         -1.7450   -1.0285   -1.4288 C.3       1 <0>         0.0245
      9 H1         -0.9463   -1.5264   -1.9784 H         1 <0>         0.1551
     10 C9         -2.9907   -1.9168   -1.4231 C.3       1 <0>         0.1135
     11 N1         -3.4936   -2.0615   -2.7914 N.pl3     1 <0>        -0.7055
     12 C10        -4.6203   -2.8258   -3.0371 C.2       1 <0>         0.2794
     13 N2         -5.3657   -3.4845   -2.1723 N.2       1 <0>        -0.5619
     14 C11        -6.4175   -4.1732   -2.5623 C.2       1 <0>         0.0901
     15 C12        -6.6938   -4.1687   -3.9043 C.2       1 <0>        -0.1784
     16 S1         -5.3728   -3.1318   -4.5110 S.3       1 <0>         0.1353
     17 C13        -7.7850   -4.8335   -4.6438 C.ar      1 <0>         0.0253
     18 C14        -8.7327   -5.6044   -3.9457 C.ar      1 <0>        -0.1090
     19 C15        -9.7457   -6.2267   -4.6012 C.ar      1 <0>        -0.0679
     20 C16        -9.8566   -6.1036   -5.9972 C.ar      1 <0>        -0.1140
     21 C17       -10.8872   -6.7285   -6.7155 C.ar      1 <0>         0.1520
     22 N3        -10.9560   -6.5885   -8.0192 N.ar      1 <0>        -0.4848
     23 C18       -10.0823   -5.8703   -8.7119 C.ar      1 <0>         0.0864
     24 C19        -9.0460   -5.2244   -8.1099 C.ar      1 <0>        -0.1592
     25 C20        -8.9059   -5.3276   -6.7123 C.ar      1 <0>        -0.0164
     26 C21        -7.8711   -4.6887   -6.0205 C.ar      1 <0>        -0.1041
     27 N4         -2.0599    0.2523   -2.0756 N.4       1 <0>        -0.6402
     28 C22         3.6720    2.1819   -0.0222 C.3       1 <0>         0.5037
     29 F1          4.0857    2.4144    1.2938 F         1 <0>        -0.1688
     30 F2          4.6506    1.4423   -0.6949 F         1 <0>        -0.1714
     31 F3          3.4816    3.4050   -0.6742 F         1 <0>        -0.1728
     32 H2         -0.9591    1.9053    0.0259 H         1 <0>         0.1371
     33 H3          1.1563    3.1654    0.0076 H         1 <0>         0.1471
     34 H4          3.3385   -0.4987   -0.0326 H         1 <0>         0.1479
     35 H5          1.2231   -1.7588   -0.0179 H         1 <0>         0.1451
     36 H6         -1.1443   -1.7285    0.5180 H         1 <0>         0.1327
     37 H7         -2.0551   -0.1993    0.5352 H         1 <0>         0.1104
     38 H8         -2.7351   -2.8985   -1.0242 H         1 <0>         0.1172
     39 H9         -3.7596   -1.4603   -0.7997 H         1 <0>         0.1001
     40 H10        -3.0366   -1.6214   -3.5252 H         1 <0>         0.4105
     41 H11        -7.0322   -4.7154   -1.8591 H         1 <0>         0.1819
     42 H12        -8.6529   -5.7028   -2.8731 H         1 <0>         0.1327
     43 H13       -10.4649   -6.8155   -4.0513 H         1 <0>         0.1429
     44 H14       -11.6232   -7.3246   -6.1965 H         1 <0>         0.1678
     45 H15       -10.1959   -5.7960   -9.7833 H         1 <0>         0.1573
     46 H16        -8.3452   -4.6448   -8.6925 H         1 <0>         0.1398
     47 H17        -7.1448   -4.0928   -6.5532 H         1 <0>         0.1296
     48 H18        -2.7994    0.7132   -1.5668 H         1 <0>         0.4378
     49 H19        -1.2384    0.8381   -2.0794 H         1 <0>         0.4380
     50 H20        -2.3583    0.0853   -3.0249 H         1 <0>         0.4321
@<TRIPOS>BOND
     1    1    6 ar
     2    1    2 ar
     3    1   32 1
     4    2    3 ar
     5    2   33 1
     6    3    4 ar
     7    3   28 1
     8    4    5 ar
     9    4   34 1
    10    5    6 ar
    11    5   35 1
    12    6    7 1
    13    7    8 1
    14    7   36 1
    15    7   37 1
    16    8    9 1
    17    8   10 1
    18    8   27 1
    19   10   11 1
    20   10   38 1
    21   10   39 1
    22   11   12 1
    23   11   40 1
    24   12   16 1
    25   12   13 2
    26   13   14 1
    27   14   15 2
    28   14   41 1
    29   15   16 1
    30   15   17 1
    31   17   26 ar
    32   17   18 ar
    33   18   19 ar
    34   18   42 1
    35   19   20 ar
    36   19   43 1
    37   20   25 ar
    38   20   21 ar
    39   21   22 ar
    40   21   44 1
    41   22   23 ar
    42   23   24 ar
    43   23   45 1
    44   24   25 ar
    45   24   46 1
    46   25   26 ar
    47   26   47 1
    48   27   48 1
    49   27   49 1
    50   27   50 1
    51   28   29 1
    52   28   30 1
    53   28   31 1
@<TRIPOS>MOLECULE
CHEMBL411704
   36    39     0     0     0
SMALL
USER_CHARGES

@<TRIPOS>ATOM
      1 C1          0.4633    1.3957    0.2843 C.3       1 <0>         0.0230
      2 O1          0.3301   -0.0239    0.1894 O.3       1 <0>        -0.2830
      3 C2          0.8794   -0.6231   -0.8979 C.ar      1 <0>         0.2157
      4 C3          1.5437    0.1196   -1.8650 C.ar      1 <0>        -0.2760
      5 C4          2.0900   -0.5294   -2.9590 C.ar      1 <0>         0.1689
      6 N1          1.9953   -1.8343   -3.1063 N.ar      1 <0>        -0.5131
      7 C5          1.3722   -2.5981   -2.2152 C.ar      1 <0>         0.2799
      8 C6          0.7983   -2.0117   -1.0759 C.ar      1 <0>        -0.0971
      9 C7          0.2019   -3.1026   -0.2944 C.2       1 <0>        -0.1428
     10 C8          0.4575   -4.2746   -1.0049 C.2       1 <0>         0.1883
     11 N2          1.1497   -3.9610   -2.1562 N.pl3     1 <0>        -0.4243
     12 C9          1.5068   -4.9727   -3.0106 C.2       1 <0>         0.6320
     13 N3          1.1863   -6.2203   -2.7557 N.2       1 <0>        -0.5762
     14 C10         0.5031   -6.5668   -1.6621 C.2       1 <0>         0.1541
     15 C11         0.1333   -5.6240   -0.7528 C.2       1 <0>        -0.2356
     16 N4          2.2102   -4.6763   -4.1507 N.pl3     1 <0>        -0.8098
     17 C12        -0.5196   -2.9830    0.9815 C.ar      1 <0>         0.3123
     18 C13        -0.2188   -3.8375    2.0546 C.ar      1 <0>        -0.2803
     19 C14        -0.9159   -3.6898    3.2234 C.ar      1 <0>         0.1905
     20 N5         -1.8496   -2.7521    3.3129 N.ar      1 <0>        -0.5819
     21 C15        -2.1196   -1.9546    2.2892 C.ar      1 <0>         0.5682
     22 N6         -1.4685   -2.0556    1.1410 N.ar      1 <0>        -0.5462
     23 N7         -3.1020   -0.9892    2.4259 N.pl3     1 <0>        -0.8243
     24 H1          1.5203    1.6608    0.3066 H         1 <0>         0.0585
     25 H2         -0.0106    1.8636   -0.5786 H         1 <0>         0.0606
     26 H3         -0.0183    1.7455    1.1974 H         1 <0>         0.1025
     27 H4          1.6328    1.1912   -1.7650 H         1 <0>         0.1477
     28 H5          2.6065    0.0492   -3.7106 H         1 <0>         0.1711
     29 H6          0.2588   -7.6044   -1.4885 H         1 <0>         0.1734
     30 H7         -0.4166   -5.9013    0.1345 H         1 <0>         0.1553
     31 H8          2.4508   -3.7573   -4.3469 H         1 <0>         0.4265
     32 H9          2.4668   -5.3856   -4.7605 H         1 <0>         0.4283
     33 H10         0.5454   -4.5947    1.9597 H         1 <0>         0.1422
     34 H11        -0.7074   -4.3323    4.0661 H         1 <0>         0.1659
     35 H12        -3.5835   -0.9024    3.2635 H         1 <0>         0.4132
     36 H13        -3.3090   -0.3995    1.6841 H         1 <0>         0.4125
@<TRIPOS>BOND
     1    1    2 1
     2    1   24 1
     3    1   25 1
     4    1   26 1
     5    2    3 1
     6    3    8 ar
     7    3    4 ar
     8    4    5 ar
     9    4   27 1
    10    5    6 ar
    11    5   28 1
    12    6    7 ar
    13    7   11 1
    14    7    8 ar
    15    8    9 1
    16    9   10 2
    17    9   17 1
    18   10   15 1
    19   10   11 1
    20   11   12 1
    21   12   13 2
    22   12   16 1
    23   13   14 1
    24   14   15 2
    25   14   29 1
    26   15   30 1
    27   16   31 1
    28   16   32 1
    29   17   22 ar
    30   17   18 ar
    31   18   19 ar
    32   18   33 1
    33   19   20 ar
    34   19   34 1
    35   20   21 ar
    36   21   22 ar
    37   21   23 1
    38   23   35 1
    39   23   36 1
@<TRIPOS>MOLECULE
CHEMBL269882
   37    40     0     0     0
SMALL
USER_CHARGES

@<TRIPOS>ATOM
      1 C1         -0.0168    1.3858    0.0097 C.ar      1 <0>        -0.1719
      2 C2          1.1705    2.0906    0.0021 C.ar      1 <0>         0.0160
      3 C3          2.3775    1.4155   -0.0130 C.ar      1 <0>        -0.7011
      4 C4          2.4002    0.0326   -0.0207 C.ar      1 <0>         0.0153
      5 C5          1.2170   -0.6791   -0.0132 C.ar      1 <0>        -0.1594
      6 C6          0.0021   -0.0041    0.0020 C.ar      1 <0>         0.2277
      7 N1         -1.1955   -0.7197    0.0096 N.pl3     1 <0>        -0.4829
      8 N2         -1.1761   -2.0095    0.0025 N.2       1 <0>        -0.0975
      9 C7         -2.3053   -2.6843    0.0097 C.2       1 <0>        -0.0209
     10 C8         -2.4756   -4.1526    0.0094 C.ar      1 <0>         0.0028
     11 C9         -3.8487   -4.3938    0.0186 C.ar      1 <0>         0.1164
     12 C10        -4.3154   -5.7106    0.0201 C.ar      1 <0>        -0.0671
     13 C11        -3.4378   -6.7684    0.0131 C.ar      1 <0>        -0.0968
     14 C12        -2.0622   -6.5469    0.0042 C.ar      1 <0>         0.1236
     15 C13        -1.5678   -5.2300    0.0020 C.ar      1 <0>        -0.1097
     16 C14        -0.1569   -5.3200   -0.0085 C.2       1 <0>         0.1432
     17 N3          0.1818   -6.5780   -0.0124 N.2       1 <0>        -0.2241
     18 N4         -0.9684   -7.3763   -0.0035 N.pl3     1 <0>        -0.4833
     19 H1         -0.9888   -8.3461   -0.0040 H         1 <0>         0.4521
     20 Cl1         0.9424   -3.9765   -0.0158 Cl        1 <0>         0.0316
     21 N5         -4.5283   -3.1781    0.0246 N.am      1 <0>        -0.6378
     22 C15        -3.6743   -2.1406    0.0261 C.2       1 <0>         0.5480
     23 O1         -3.9779   -0.9614    0.0359 O.2       1 <0>        -0.5184
     24 S1          3.8900    2.3193   -0.0232 S.o2      1 <0>         2.7046
     25 O2          4.8720    1.4614   -0.5880 O.2       1 <0>        -0.9608
     26 O3          3.5945    3.5994   -0.5648 O.2       1 <0>        -0.9593
     27 N6          4.3256    2.5625    1.5558 N.pl3     1 <0>        -1.2480
     28 H2         -0.9588    1.9136    0.0260 H         1 <0>         0.1442
     29 H3          1.1567    3.1705    0.0077 H         1 <0>         0.1536
     30 H4          3.3446   -0.4912   -0.0329 H         1 <0>         0.1507
     31 H5          1.2356   -1.7589   -0.0195 H         1 <0>         0.1375
     32 H6         -2.0427   -0.2474    0.0202 H         1 <0>         0.4140
     33 H7         -5.3787   -5.8997    0.0273 H         1 <0>         0.1468
     34 H8         -3.8176   -7.7794    0.0147 H         1 <0>         0.1465
     35 H9         -5.4944   -3.0915    0.0310 H         1 <0>         0.4244
     36 H10         5.2631    2.6308    1.7953 H         1 <0>         0.4225
     37 H11         3.6434    2.6367    2.2413 H         1 <0>         0.4174
@<TRIPOS>BOND
     1    1    6 ar
     2    1    2 ar
     3    1   28 1
     4    2    3 ar
     5    2   29 1
     6    3    4 ar
     7    3   24 1
     8    4    5 ar
     9    4   30 1
    10    5    6 ar
    11    5   31 1
    12    6    7 1
    13    7    8 1
    14    7   32 1
    15    8    9 2
    16    9   22 1
    17    9   10 1
    18   10   15 ar
    19   10   11 ar
    20   11   12 ar
    21   11   21 1
    22   12   13 ar
    23   12   33 1
    24   13   14 ar
    25   13   34 1
    26   14   18 1
    27   14   15 ar
    28   15   16 1
    29   16   17 2
    30   16   20 1
    31   17   18 1
    32   18   19 1
    33   21   22 am
    34   21   35 1
    35   22   23 2
    36   24   25 2
    37   24   26 2
    38   24   27 1
    39   27   36 1
    40   27   37 1
@<TRIPOS>MOLECULE
CHEMBL269882
   37    40     0     0     0
SMALL
USER_CHARGES

@<TRIPOS>ATOM
      1 C1         -0.0168    1.3858    0.0097 C.ar      1 <0>        -0.1733
      2 C2          1.1705    2.0906    0.0021 C.ar      1 <0>         0.0199
      3 C3          2.3775    1.4155   -0.0135 C.ar      1 <0>        -0.7010
      4 C4          2.4002    0.0326   -0.0211 C.ar      1 <0>         0.0129
      5 C5          1.2171   -0.6791   -0.0132 C.ar      1 <0>        -0.1618
      6 C6          0.0021   -0.0041    0.0020 C.ar      1 <0>         0.2305
      7 N1         -1.1954   -0.7197    0.0101 N.pl3     1 <0>        -0.4845
      8 N2         -1.1760   -2.0095    0.0030 N.2       1 <0>        -0.1059
      9 C7         -2.3059   -2.6847    0.0106 C.2       1 <0>        -0.0115
     10 C8         -2.4766   -4.1501    0.0104 C.ar      1 <0>        -0.0146
     11 C9         -3.8431   -4.3969    0.0201 C.ar      1 <0>         0.1268
     12 C10        -4.3198   -5.7180    0.0219 C.ar      1 <0>        -0.0719
     13 C11        -3.4991   -6.7929    0.0144 C.ar      1 <0>        -0.0541
     14 C12        -2.0962   -6.6366    0.0047 C.ar      1 <0>         0.1041
     15 C13        -1.5424   -5.2731    0.0020 C.ar      1 <0>        -0.1326
     16 C14        -0.1705   -5.4068   -0.0082 C.2       1 <0>         0.1441
     17 N3          0.1168   -6.7183   -0.0120 N.pl3     1 <0>        -0.4168
     18 N4         -1.0673   -7.4646   -0.0036 N.2       1 <0>        -0.2586
     19 H1          1.0115   -7.0928   -0.0188 H         1 <0>         0.4505
     20 Cl1         0.9822   -4.1088   -0.0155 Cl        1 <0>         0.0228
     21 N5         -4.5261   -3.1816    0.0263 N.am      1 <0>        -0.6367
     22 C15        -3.6754   -2.1415    0.0276 C.2       1 <0>         0.5451
     23 O1         -3.9812   -0.9629    0.0375 O.2       1 <0>        -0.5193
     24 S1          3.8899    2.3193   -0.0243 S.o2      1 <0>         2.7045
     25 O2          4.8717    1.4615   -0.5894 O.2       1 <0>        -0.9622
     26 O3          3.5942    3.5994   -0.5657 O.2       1 <0>        -0.9618
     27 N6          4.3262    2.5626    1.5546 N.pl3     1 <0>        -1.2502
     28 H2         -0.9588    1.9137    0.0260 H         1 <0>         0.1444
     29 H3          1.1567    3.1705    0.0080 H         1 <0>         0.1539
     30 H4          3.3446   -0.4912   -0.0337 H         1 <0>         0.1502
     31 H5          1.2356   -1.7589   -0.0195 H         1 <0>         0.1388
     32 H6         -2.0426   -0.2474    0.0210 H         1 <0>         0.4139
     33 H7         -5.3872   -5.8825    0.0299 H         1 <0>         0.1428
     34 H8         -3.9235   -7.7860    0.0162 H         1 <0>         0.1487
     35 H9         -5.4924   -3.0976    0.0334 H         1 <0>         0.4239
     36 H10         3.7677    2.2209    2.2703 H         1 <0>         0.4169
     37 H11         5.1403    3.0467    1.7638 H         1 <0>         0.4218
@<TRIPOS>BOND
     1    1    6 ar
     2    1    2 ar
     3    1   28 1
     4    2    3 ar
     5    2   29 1
     6    3    4 ar
     7    3   24 1
     8    4    5 ar
     9    4   30 1
    10    5    6 ar
    11    5   31 1
    12    6    7 1
    13    7    8 1
    14    7   32 1
    15    8    9 2
    16    9   22 1
    17    9   10 1
    18   10   15 ar
    19   10   11 ar
    20   11   12 ar
    21   11   21 1
    22   12   13 ar
    23   12   33 1
    24   13   14 ar
    25   13   34 1
    26   14   15 ar
    27   14   18 2
    28   15   16 2
    29   16   20 1
    30   16   17 1
    31   17   19 1
    32   17   18 1
    33   21   22 am
    34   21   35 1
    35   22   23 2
    36   24   25 2
    37   24   26 2
    38   24   27 1
    39   27   36 1
    40   27   37 1
@<TRIPOS>MOLECULE
CHEMBL563150
   50    54     0     0     0
SMALL
USER_CHARGES

@<TRIPOS>ATOM
      1 C1          0.0826    1.8506   -0.0177 C.3       1 <0>         0.0863
      2 N1          0.2912    0.4015   -0.0698 N.pl3     1 <0>        -0.2357
      3 C2          0.4065   -0.3248   -1.1982 C.2       1 <0>         0.0334
      4 C3          0.6144   -1.6331   -0.8156 C.2       1 <0>        -0.1004
      5 C4          0.5903   -1.6258    0.5794 C.2       1 <0>        -0.0133
      6 N2          0.3977   -0.3712    0.9589 N.2       1 <0>        -0.2462
      7 C5          0.7538   -2.7958    1.4661 C.2       1 <0>         0.6106
      8 O1          0.9298   -3.9002    0.9892 O.2       1 <0>        -0.5057
      9 N3          0.7078   -2.6391    2.8039 N.am      1 <0>        -0.6618
     10 C6          0.7636   -3.7578    3.6414 C.ar      1 <0>         0.1418
     11 C7          0.0292   -3.7822    4.8200 C.ar      1 <0>        -0.1424
     12 C8          0.0861   -4.8886    5.6445 C.ar      1 <0>        -0.1021
     13 C9          0.8732   -5.9714    5.2978 C.ar      1 <0>        -0.1329
     14 C10         1.6057   -5.9503    4.1251 C.ar      1 <0>        -0.1022
     15 C11         1.5491   -4.8491    3.2935 C.ar      1 <0>        -0.1195
     16 C12         0.8284   -2.7394   -1.8069 C.3       1 <0>        -0.0505
     17 C13         0.0533   -2.4404   -3.0904 C.3       1 <0>        -0.0643
     18 C14         0.2217   -1.0204   -3.5465 C.ar      1 <0>        -0.2141
     19 C15         0.3707    0.0286   -2.6276 C.ar      1 <0>         0.2896
     20 N4          0.4788    1.2754   -3.0609 N.ar      1 <0>        -0.5565
     21 C16         0.4688    1.5302   -4.3627 C.ar      1 <0>         0.5627
     22 N5          0.3531    0.5605   -5.2586 N.ar      1 <0>        -0.5496
     23 C17         0.2285   -0.7064   -4.8925 C.ar      1 <0>         0.1978
     24 N6          0.5815    2.8413   -4.7961 N.pl3     1 <0>        -0.6367
     25 C18         0.4641    3.1403   -6.1568 C.ar      1 <0>         0.1622
     26 C19        -0.3898    2.3970   -6.9616 C.ar      1 <0>        -0.1150
     27 C20        -0.5038    2.6953   -8.3053 C.ar      1 <0>        -0.0996
     28 C21         0.2309    3.7327   -8.8495 C.ar      1 <0>        -0.1371
     29 C22         1.0822    4.4745   -8.0511 C.ar      1 <0>        -0.0984
     30 C23         1.1966    4.1851   -6.7056 C.ar      1 <0>        -0.1489
     31 H1          1.0481    2.3563    0.0002 H         1 <0>         0.0927
     32 H2         -0.4780    2.1689   -0.8967 H         1 <0>         0.1045
     33 H3         -0.4775    2.1050    0.8821 H         1 <0>         0.0998
     34 H4          0.6361   -1.7504    3.1860 H         1 <0>         0.4172
     35 H5         -0.5855   -2.9367    5.0915 H         1 <0>         0.1255
     36 H6         -0.4845   -4.9081    6.5613 H         1 <0>         0.1266
     37 H7          0.9163   -6.8353    5.9445 H         1 <0>         0.1237
     38 H8          2.2198   -6.7975    3.8573 H         1 <0>         0.1265
     39 H9          2.1182   -4.8349    2.3757 H         1 <0>         0.1395
     40 H10         1.8910   -2.8206   -2.0358 H         1 <0>         0.0839
     41 H11         0.4771   -3.6798   -1.3821 H         1 <0>         0.1033
     42 H12         0.4042   -3.1075   -3.8777 H         1 <0>         0.0902
     43 H13        -1.0055   -2.6312   -2.9153 H         1 <0>         0.0822
     44 H14         0.1334   -1.4839   -5.6361 H         1 <0>         0.1782
     45 H15         0.7419    3.5517   -4.1555 H         1 <0>         0.4231
     46 H16        -0.9636    1.5864   -6.5373 H         1 <0>         0.1337
     47 H17        -1.1672    2.1175   -8.9317 H         1 <0>         0.1250
     48 H18         0.1399    3.9640   -9.9006 H         1 <0>         0.1230
     49 H19         1.6551    5.2836   -8.4795 H         1 <0>         0.1260
     50 H20         1.8583    4.7676   -6.0817 H         1 <0>         0.1237
@<TRIPOS>BOND
     1    1    2 1
     2    1   31 1
     3    1   32 1
     4    1   33 1
     5    2    6 1
     6    2    3 1
     7    3   19 1
     8    3    4 2
     9    4    5 1
    10    4   16 1
    11    5    6 2
    12    5    7 1
    13    7    8 2
    14    7    9 am
    15    9   10 1
    16    9   34 1
    17   10   15 ar
    18   10   11 ar
    19   11   12 ar
    20   11   35 1
    21   12   13 ar
    22   12   36 1
    23   13   14 ar
    24   13   37 1
    25   14   15 ar
    26   14   38 1
    27   15   39 1
    28   16   17 1
    29   16   40 1
    30   16   41 1
    31   17   18 1
    32   17   42 1
    33   17   43 1
    34   18   23 ar
    35   18   19 ar
    36   19   20 ar
    37   20   21 ar
    38   21   22 ar
    39   21   24 1
    40   22   23 ar
    41   23   44 1
    42   24   25 1
    43   24   45 1
    44   25   30 ar
    45   25   26 ar
    46   26   27 ar
    47   26   46 1
    48   27   28 ar
    49   27   47 1
    50   28   29 ar
    51   28   48 1
    52   29   30 ar
    53   29   49 1
    54   30   50 1
@<TRIPOS>MOLECULE
CHEMBL559639
   47    51     0     0     0
SMALL
USER_CHARGES

@<TRIPOS>ATOM
      1 C1         -0.7814    1.5132   -0.1326 C.3       1 <0>         0.0871
      2 N1         -0.5778    0.0639   -0.0669 N.pl3     1 <0>        -0.2379
      3 C2         -0.2758   -0.7246   -1.1161 C.2       1 <0>         0.0322
      4 C3         -0.1465   -2.0088   -0.6308 C.2       1 <0>        -0.1023
      5 C4         -0.4097   -1.9228    0.7365 C.2       1 <0>        -0.0114
      6 N2         -0.6552   -0.6493    1.0065 N.2       1 <0>        -0.2483
      7 C5         -0.4098   -3.0408    1.7024 C.2       1 <0>         0.6130
      8 O1         -0.1630   -4.1698    1.3254 O.2       1 <0>        -0.5231
      9 N3         -0.6836   -2.8089    3.0015 N.am      1 <0>        -0.6906
     10 C6         -0.6837   -3.9174    3.9593 C.3       1 <0>         0.0776
     11 C7         -1.8243   -3.9711    4.9776 C.3       1 <0>        -0.1914
     12 C8         -0.4147   -3.5824    5.4277 C.3       1 <0>        -0.1876
     13 C9          0.2264   -3.1688   -1.5071 C.3       1 <0>        -0.0499
     14 C10        -0.3146   -2.9445   -2.9193 C.3       1 <0>        -0.0641
     15 C11        -0.0598   -1.5522   -3.4186 C.ar      1 <0>        -0.2148
     16 C12        -0.0630   -0.4526   -2.5479 C.ar      1 <0>         0.2898
     17 N4          0.1271    0.7680   -3.0254 N.ar      1 <0>        -0.5573
     18 C13         0.3426    0.9489   -4.3218 C.ar      1 <0>         0.5634
     19 N5          0.3757   -0.0702   -5.1684 N.ar      1 <0>        -0.5503
     20 C14         0.1803   -1.3147   -4.7588 C.ar      1 <0>         0.1983
     21 N6          0.5373    2.2336   -4.8022 N.pl3     1 <0>        -0.6396
     22 C15         0.6499    2.4560   -6.1779 C.ar      1 <0>         0.1620
     23 C16        -0.1527    1.7502   -7.0650 C.ar      1 <0>        -0.1097
     24 C17        -0.0393    1.9726   -8.4233 C.ar      1 <0>        -0.1007
     25 C18         0.8724    2.8965   -8.9005 C.ar      1 <0>        -0.1340
     26 C19         1.6732    3.6005   -8.0201 C.ar      1 <0>        -0.0999
     27 C20         1.5605    3.3874   -6.6602 C.ar      1 <0>        -0.1448
     28 H1          0.1704    2.0212    0.0226 H         1 <0>         0.0918
     29 H2         -1.1804    1.7800   -1.1112 H         1 <0>         0.1040
     30 H3         -1.4858    1.8166    0.6420 H         1 <0>         0.0989
     31 H4         -0.8805   -1.9080    3.3024 H         1 <0>         0.4083
     32 H5         -0.3012   -4.8655    3.5812 H         1 <0>         0.1415
     33 H6         -2.5747   -3.1816    4.9350 H         1 <0>         0.0977
     34 H7         -2.1926   -4.9546    5.2695 H         1 <0>         0.1047
     35 H8          0.1445   -4.3102    6.0157 H         1 <0>         0.1059
     36 H9         -0.2375   -2.5371    5.6812 H         1 <0>         0.0981
     37 H10         1.3118   -3.2603   -1.5450 H         1 <0>         0.0831
     38 H11        -0.1996   -4.0845   -1.0970 H         1 <0>         0.1031
     39 H12         0.1613   -3.6543   -3.5960 H         1 <0>         0.0896
     40 H13        -1.3891   -3.1275   -2.9184 H         1 <0>         0.0819
     41 H14         0.2080   -2.1331   -5.4630 H         1 <0>         0.1775
     42 H15         0.5955    2.9789   -4.1841 H         1 <0>         0.4229
     43 H16        -0.8644    1.0280   -6.6931 H         1 <0>         0.1265
     44 H17        -0.6630    1.4241   -9.1137 H         1 <0>         0.1251
     45 H18         0.9593    3.0683   -9.9632 H         1 <0>         0.1234
     46 H19         2.3844    4.3211   -8.3960 H         1 <0>         0.1262
     47 H20         2.1829    3.9411   -5.9728 H         1 <0>         0.1239
@<TRIPOS>BOND
     1    1    2 1
     2    1   28 1
     3    1   29 1
     4    1   30 1
     5    2    6 1
     6    2    3 1
     7    3   16 1
     8    3    4 2
     9    4    5 1
    10    4   13 1
    11    5    6 2
    12    5    7 1
    13    7    8 2
    14    7    9 am
    15    9   10 1
    16    9   31 1
    17   10   12 1
    18   10   11 1
    19   10   32 1
    20   11   12 1
    21   11   33 1
    22   11   34 1
    23   12   35 1
    24   12   36 1
    25   13   14 1
    26   13   37 1
    27   13   38 1
    28   14   15 1
    29   14   39 1
    30   14   40 1
    31   15   20 ar
    32   15   16 ar
    33   16   17 ar
    34   17   18 ar
    35   18   19 ar
    36   18   21 1
    37   19   20 ar
    38   20   41 1
    39   21   22 1
    40   21   42 1
    41   22   27 ar
    42   22   23 ar
    43   23   24 ar
    44   23   43 1
    45   24   25 ar
    46   24   44 1
    47   25   26 ar
    48   25   45 1
    49   26   27 ar
    50   26   46 1
    51   27   47 1
@<TRIPOS>MOLECULE
CHEMBL83190
   49    53     0     0     0
SMALL
USER_CHARGES

@<TRIPOS>ATOM
      1 C1         -0.0167    1.3781    0.0096 C.ar      1 <0>        -0.1157
      2 C2          1.1709    2.0855    0.0021 C.ar      1 <0>        -0.1224
      3 C3          2.3773    1.4107   -0.0130 C.ar      1 <0>        -0.1017
      4 C4          2.3960    0.0285   -0.0201 C.ar      1 <0>        -0.0973
      5 C5          1.2084   -0.6789   -0.0117 C.ar      1 <0>        -0.1014
      6 C6          0.0021   -0.0041    0.0020 C.ar      1 <0>        -0.1234
      7 C7          3.7112   -0.7071   -0.0376 C.3       1 <0>         0.1570
      8 N1          4.1518   -0.9524    1.3379 N.pl3     1 <0>        -1.1166
      9 S1          5.3546   -2.0502    1.6387 S.o2      1 <0>         2.6985
     10 O1          5.5700   -2.0420    3.0433 O.2       1 <0>        -0.9674
     11 O2          5.0130   -3.2320    0.9273 O.2       1 <0>        -0.9660
     12 C8          6.8270   -1.4254    0.8997 C.ar      1 <0>        -0.7276
     13 C9          7.1311   -1.7500   -0.4106 C.ar      1 <0>        -0.0041
     14 C10         8.2818   -1.2641   -0.9957 C.ar      1 <0>        -0.1595
     15 C11         9.1410   -0.4425   -0.2622 C.ar      1 <0>         0.2107
     16 C12         8.8276   -0.1189    1.0601 C.ar      1 <0>        -0.2128
     17 C13         7.6708   -0.6077    1.6306 C.ar      1 <0>         0.0070
     18 N2         10.2843    0.0427   -0.8360 N.2       1 <0>        -0.5547
     19 C14        10.6111    1.3013   -0.6818 C.2       1 <0>         0.2976
     20 C15        11.7950    1.8037   -1.2760 C.2       1 <0>        -0.3529
     21 C16        12.3076    3.1855   -1.1952 C.ar      1 <0>         0.0132
     22 C17        13.4998    3.1988   -1.9360 C.ar      1 <0>         0.1046
     23 C18        14.2181    4.3901   -2.0395 C.ar      1 <0>        -0.1031
     24 C19        13.7911    5.5323   -1.4413 C.ar      1 <0>        -0.0796
     25 C20        12.5952    5.5601   -0.6858 C.ar      1 <0>         0.0491
     26 C21        11.8750    4.3523   -0.5870 C.ar      1 <0>        -0.1290
     27 S2         10.4908    4.8278    0.4148 S.3       1 <0>         0.0561
     28 C22        10.8999    6.4464    0.6282 C.2       1 <0>         0.0421
     29 N3         12.0157    6.5851   -0.0262 N.2       1 <0>        -0.5019
     30 N4         13.7058    1.9255   -2.4341 N.pl3     1 <0>        -0.6235
     31 H1         14.4613    1.6620   -2.9824 H         1 <0>         0.4037
     32 C23        12.7050    1.0937   -2.0436 C.2       1 <0>         0.4927
     33 O3         12.6101   -0.2187   -2.3567 O.3       1 <0>        -0.6314
     34 H2         -0.9591    1.9053    0.0259 H         1 <0>         0.1211
     35 H3          1.1563    3.1654    0.0076 H         1 <0>         0.1233
     36 H4          3.3051    1.9634   -0.0196 H         1 <0>         0.1267
     37 H5          1.2231   -1.7588   -0.0176 H         1 <0>         0.1260
     38 H6         -0.9258   -0.5567    0.0082 H         1 <0>         0.1227
     39 H7          3.5884   -1.6586   -0.5549 H         1 <0>         0.0887
     40 H8          4.4573   -0.1052   -0.5563 H         1 <0>         0.0776
     41 H9          3.7390   -0.4718    2.0724 H         1 <0>         0.4170
     42 H10         6.4661   -2.3857   -0.9764 H         1 <0>         0.1320
     43 H11         8.5181   -1.5186   -2.0183 H         1 <0>         0.1306
     44 H12         9.4874    0.5158    1.6330 H         1 <0>         0.1231
     45 H13         7.4252   -0.3551    2.6515 H         1 <0>         0.1293
     46 H14         9.9781    1.9563   -0.1017 H         1 <0>         0.0784
     47 H15        15.1359    4.4045   -2.6086 H         1 <0>         0.1243
     48 H16        14.3749    6.4351   -1.5439 H         1 <0>         0.1263
     49 H17        10.3594    7.1988    1.1834 H         1 <0>         0.2128
@<TRIPOS>BOND
     1    1    6 ar
     2    1    2 ar
     3    1   34 1
     4    2    3 ar
     5    2   35 1
     6    3    4 ar
     7    3   36 1
     8    4    5 ar
     9    4    7 1
    10    5    6 ar
    11    5   37 1
    12    6   38 1
    13    7    8 1
    14    7   39 1
    15    7   40 1
    16    8    9 1
    17    8   41 1
    18    9   10 2
    19    9   11 2
    20    9   12 1
    21   12   17 ar
    22   12   13 ar
    23   13   14 ar
    24   13   42 1
    25   14   15 ar
    26   14   43 1
    27   15   16 ar
    28   15   18 1
    29   16   17 ar
    30   16   44 1
    31   17   45 1
    32   18   19 2
    33   19   20 1
    34   19   46 1
    35   20   32 2
    36   20   21 1
    37   21   26 ar
    38   21   22 ar
    39   22   23 ar
    40   22   30 1
    41   23   24 ar
    42   23   47 1
    43   24   25 ar
    44   24   48 1
    45   25   29 1
    46   25   26 ar
    47   26   27 1
    48   27   28 1
    49   28   29 2
    50   28   49 1
    51   30   31 1
    52   30   32 1
    53   32   33 1
@<TRIPOS>MOLECULE
CHEMBL83190
   50    54     0     0     0
SMALL
USER_CHARGES

@<TRIPOS>ATOM
      1 C1         -0.0167    1.3781    0.0096 C.ar      1 <0>        -0.1115
      2 C2          1.1709    2.0855    0.0021 C.ar      1 <0>        -0.1220
      3 C3          2.3773    1.4107   -0.0130 C.ar      1 <0>        -0.1028
      4 C4          2.3960    0.0285   -0.0201 C.ar      1 <0>        -0.1033
      5 C5          1.2084   -0.6789   -0.0117 C.ar      1 <0>        -0.1001
      6 C6          0.0021   -0.0041    0.0020 C.ar      1 <0>        -0.1210
      7 C7          3.7112   -0.7071   -0.0376 C.3       1 <0>         0.1579
      8 N1          4.1518   -0.9524    1.3379 N.pl3     1 <0>        -1.1135
      9 S1          5.3546   -2.0502    1.6387 S.o2      1 <0>         2.6950
     10 O1          5.5700   -2.0420    3.0433 O.2       1 <0>        -0.9567
     11 O2          5.0130   -3.2320    0.9273 O.2       1 <0>        -0.9549
     12 C8          6.8270   -1.4254    0.8997 C.ar      1 <0>        -0.6946
     13 C9          7.1311   -1.7500   -0.4106 C.ar      1 <0>        -0.0065
     14 C10         8.2818   -1.2641   -0.9957 C.ar      1 <0>        -0.1327
     15 C11         9.1410   -0.4425   -0.2622 C.ar      1 <0>         0.1577
     16 C12         8.8276   -0.1189    1.0601 C.ar      1 <0>        -0.1809
     17 C13         7.6708   -0.6077    1.6306 C.ar      1 <0>         0.0027
     18 N2         10.2843    0.0427   -0.8360 N.2       1 <0>        -0.5030
     19 C14        10.6111    1.3013   -0.6818 C.2       1 <0>         0.2599
     20 C15        11.7950    1.8037   -1.2760 C.2       1 <0>        -0.1895
     21 C16        12.3076    3.1855   -1.1952 C.ar      1 <0>        -0.0158
     22 C17        13.4998    3.1988   -1.9360 C.ar      1 <0>         0.1093
     23 C18        14.2181    4.3901   -2.0395 C.ar      1 <0>        -0.0958
     24 C19        13.7911    5.5323   -1.4413 C.ar      1 <0>        -0.0419
     25 C20        12.5952    5.5601   -0.6858 C.ar      1 <0>         0.0738
     26 C21        11.8750    4.3523   -0.5870 C.ar      1 <0>        -0.1294
     27 S2         10.4908    4.8278    0.4148 S.3       1 <0>         0.0983
     28 C22        10.8999    6.4464    0.6282 C.2       1 <0>         0.0692
     29 N3         12.0157    6.5851   -0.0262 N.2       1 <0>        -0.5023
     30 N4         13.7058    1.9255   -2.4341 N.pl3     1 <0>        -0.5713
     31 H1         14.4613    1.6620   -2.9824 H         1 <0>         0.4249
     32 C23        12.7050    1.0937   -2.0436 C.2       1 <0>         0.3519
     33 O3         12.6101   -0.2187   -2.3567 O.3       1 <0>        -0.4403
     34 H2         -0.9591    1.9053    0.0259 H         1 <0>         0.1236
     35 H3          1.1563    3.1654    0.0076 H         1 <0>         0.1243
     36 H4          3.3051    1.9634   -0.0196 H         1 <0>         0.1243
     37 H5          1.2231   -1.7588   -0.0176 H         1 <0>         0.1267
     38 H6         -0.9258   -0.5567    0.0082 H         1 <0>         0.1251
     39 H7          3.5884   -1.6586   -0.5549 H         1 <0>         0.0901
     40 H8          4.4573   -0.1052   -0.5563 H         1 <0>         0.0750
     41 H9          3.7390   -0.4718    2.0724 H         1 <0>         0.4209
     42 H10         6.4661   -2.3857   -0.9764 H         1 <0>         0.1440
     43 H11         8.5181   -1.5186   -2.0183 H         1 <0>         0.1376
     44 H12         9.4874    0.5158    1.6330 H         1 <0>         0.1315
     45 H13         7.4252   -0.3551    2.6515 H         1 <0>         0.1418
     46 H14         9.9781    1.9563   -0.1017 H         1 <0>         0.1079
     47 H15        15.1359    4.4045   -2.6086 H         1 <0>         0.1398
     48 H16        14.3749    6.4351   -1.5439 H         1 <0>         0.1439
     49 H17        10.3594    7.1988    1.1834 H         1 <0>         0.2248
     50 H18        12.1288   -0.3935   -3.1769 H         1 <0>         0.4075
@<TRIPOS>BOND
     1    1    6 ar
     2    1    2 ar
     3    1   34 1
     4    2    3 ar
     5    2   35 1
     6    3    4 ar
     7    3   36 1
     8    4    5 ar
     9    4    7 1
    10    5    6 ar
    11    5   37 1
    12    6   38 1
    13    7    8 1
    14    7   39 1
    15    7   40 1
    16    8    9 1
    17    8   41 1
    18    9   10 2
    19    9   11 2
    20    9   12 1
    21   12   17 ar
    22   12   13 ar
    23   13   14 ar
    24   13   42 1
    25   14   15 ar
    26   14   43 1
    27   15   16 ar
    28   15   18 1
    29   16   17 ar
    30   16   44 1
    31   17   45 1
    32   18   19 2
    33   19   20 1
    34   19   46 1
    35   20   32 2
    36   20   21 1
    37   21   26 ar
    38   21   22 ar
    39   22   23 ar
    40   22   30 1
    41   23   24 ar
    42   23   47 1
    43   24   25 ar
    44   24   48 1
    45   25   29 1
    46   25   26 ar
    47   26   27 1
    48   27   28 1
    49   28   29 2
    50   28   49 1
    51   30   31 1
    52   30   32 1
    53   32   33 1
    54   33   50 1
@<TRIPOS>MOLECULE
CHEMBL186470
   40    43     0     0     0
SMALL
USER_CHARGES

@<TRIPOS>ATOM
      1 C1         -0.0184    1.5028    0.0103 C.3       1 <0>        -0.0720
      2 C2          0.0021   -0.0041    0.0020 C.2       1 <0>         0.1047
      3 N1          0.0088   -0.7959   -1.0304 N.2       1 <0>        -0.5168
      4 C3          0.0283   -2.1390   -0.9059 C.ar      1 <0>         0.0880
      5 C4          0.0377   -3.1400   -1.8996 C.ar      1 <0>        -0.0589
      6 C5          0.0569   -4.4569   -1.5554 C.ar      1 <0>        -0.0900
      7 C6          0.0677   -4.8614   -0.2276 C.ar      1 <0>        -0.0553
      8 C7          0.0595   -3.9094    0.7745 C.ar      1 <0>        -0.0432
      9 C8          0.0402   -2.5778    0.4375 C.ar      1 <0>        -0.1667
     10 S1          0.0288   -1.0427    1.3261 S.3       1 <0>         0.0839
     11 C9          0.0879   -6.3279    0.1189 C.3       1 <0>        -0.0918
     12 C10         1.5153   -6.7986    0.2282 C.2       1 <0>         0.5058
     13 O1          2.4266   -6.0199    0.0431 O.2       1 <0>        -0.4556
     14 N2          1.7793   -8.0849    0.5318 N.am      1 <0>        -0.6248
     15 C11         3.0959   -8.5191    0.6327 C.2       1 <0>         0.2646
     16 N3          4.2007   -7.8232    0.4728 N.2       1 <0>        -0.5169
     17 C12         5.3872   -8.3870    0.6034 C.2       1 <0>         0.0599
     18 C13         5.4116   -9.7078    0.9081 C.2       1 <0>        -0.1945
     19 S2          3.6637  -10.0612    0.9963 S.3       1 <0>         0.1107
     20 C14         6.5894  -10.6239    1.1193 C.3       1 <0>        -0.0210
     21 C15         6.3733  -12.0425    0.5663 C.3       1 <0>        -0.1347
     22 C16         7.0848  -12.5580    1.8284 C.3       1 <0>        -0.1423
     23 C17         6.6314  -11.2606    2.5185 C.3       1 <0>        -0.1333
     24 H1          1.0042    1.8801    0.0026 H         1 <0>         0.0949
     25 H2         -0.5455    1.8639   -0.8728 H         1 <0>         0.0959
     26 H3         -0.5286    1.8543    0.9071 H         1 <0>         0.0904
     27 H4          0.0293   -2.8594   -2.9425 H         1 <0>         0.1352
     28 H5          0.0634   -5.2051   -2.3342 H         1 <0>         0.1338
     29 H6          0.0681   -4.2094    1.8120 H         1 <0>         0.1332
     30 H7         -0.4199   -6.4833    1.0708 H         1 <0>         0.1144
     31 H8         -0.4221   -6.8926   -0.6615 H         1 <0>         0.1163
     32 H9          1.0506   -8.7077    0.6799 H         1 <0>         0.4260
     33 H10         6.2980   -7.8213    0.4731 H         1 <0>         0.1734
     34 H11         7.5349  -10.1747    0.8154 H         1 <0>         0.1159
     35 H12         5.3243  -12.3329    0.5070 H         1 <0>         0.0817
     36 H13         6.9210  -12.2401   -0.3552 H         1 <0>         0.0751
     37 H14         6.6328  -13.4567    2.2481 H         1 <0>         0.0721
     38 H15         8.1661  -12.6388    1.7178 H         1 <0>         0.0851
     39 H16         7.3875  -10.8270    3.1730 H         1 <0>         0.0745
     40 H17         5.6530  -11.3373    2.9929 H         1 <0>         0.0824
@<TRIPOS>BOND
     1    1    2 1
     2    1   24 1
     3    1   25 1
     4    1   26 1
     5    2   10 1
     6    2    3 2
     7    3    4 1
     8    4    9 ar
     9    4    5 ar
    10    5    6 ar
    11    5   27 1
    12    6    7 ar
    13    6   28 1
    14    7    8 ar
    15    7   11 1
    16    8    9 ar
    17    8   29 1
    18    9   10 1
    19   11   12 1
    20   11   30 1
    21   11   31 1
    22   12   13 2
    23   12   14 am
    24   14   15 1
    25   14   32 1
    26   15   19 1
    27   15   16 2
    28   16   17 1
    29   17   18 2
    30   17   33 1
    31   18   19 1
    32   18   20 1
    33   20   23 1
    34   20   21 1
    35   20   34 1
    36   21   22 1
    37   21   35 1
    38   21   36 1
    39   22   23 1
    40   22   37 1
    41   22   38 1
    42   23   39 1
    43   23   40 1
@<TRIPOS>MOLECULE
CHEMBL560102
   69    73     0     0     0
SMALL
USER_CHARGES

@<TRIPOS>ATOM
      1 C1         -0.6133    1.3303    1.5946 C.3       1 <0>        -0.1483
      2 C2         -0.4856   -0.1705    1.3260 C.3       1 <0>         0.0121
      3 C3         -0.1956   -0.3988   -0.1579 C.3       1 <0>        -0.0594
      4 C4          0.2790   -1.7945   -0.4403 C.ar      1 <0>        -0.2015
      5 C5         -0.0646   -2.4352   -1.6161 C.ar      1 <0>         0.1970
      6 N1          0.3949   -3.6565   -1.8425 N.ar      1 <0>        -0.5485
      7 C6          1.1785   -4.2730   -0.9690 C.ar      1 <0>         0.5568
      8 N2          1.5257   -3.7018    0.1766 N.ar      1 <0>        -0.5554
      9 C7          1.0873   -2.4874    0.4723 C.ar      1 <0>         0.2941
     10 C8          1.3717   -1.8278    1.7583 C.2       1 <0>         0.0348
     11 C9          0.6339   -0.7322    2.1531 C.2       1 <0>        -0.1101
     12 C10         1.1595   -0.3494    3.3875 C.2       1 <0>         0.0045
     13 N3          2.1266   -1.2057    3.6814 N.2       1 <0>        -0.2427
     14 N4          2.2533   -2.0844    2.7442 N.pl3     1 <0>        -0.2469
     15 C11         3.2106   -3.1933    2.7518 C.3       1 <0>         0.0837
     16 C12         0.7205    0.7957    4.2115 C.2       1 <0>         0.6117
     17 O1         -0.3264    0.7361    4.8265 O.2       1 <0>        -0.5176
     18 N5          1.4808    1.9064    4.2814 N.am      1 <0>        -0.7207
     19 C13         1.0455    3.0418    5.0984 C.3       1 <0>         0.0855
     20 N6          1.6456   -5.5445   -1.2594 N.pl3     1 <0>        -0.6394
     21 C14         1.3829   -6.1177   -2.5072 C.ar      1 <0>         0.2113
     22 C15         1.2933   -5.3138   -3.6372 C.ar      1 <0>        -0.1432
     23 C16         1.0337   -5.8803   -4.8698 C.ar      1 <0>        -0.0531
     24 C17         0.8629   -7.2472   -4.9830 C.ar      1 <0>        -0.1619
     25 C18         0.9517   -8.0550   -3.8582 C.ar      1 <0>         0.1384
     26 C19         1.2168   -7.4909   -2.6200 C.ar      1 <0>        -0.2457
     27 O2          0.7830   -9.3987   -3.9711 O.3       1 <0>        -0.2959
     28 C20         0.7788  -10.1561   -2.7593 C.3       1 <0>         0.0752
     29 C21         2.2183  -10.4990   -2.3648 C.3       1 <0>        -0.1782
     30 C22         2.2025  -11.3766   -1.1113 C.3       1 <0>        -0.0030
     31 N7          1.4607  -12.6133   -1.3848 N.4       1 <0>        -0.3873
     32 C23         0.0612  -12.2967   -1.6939 C.3       1 <0>        -0.0018
     33 C24        -0.0054  -11.4545   -2.9697 C.3       1 <0>        -0.1454
     34 C25         1.5146  -13.4861   -0.2044 C.3       1 <0>        -0.0478
     35 C26        -1.7948   -0.8678    1.7009 C.3       1 <0>        -0.1387
     36 H1          0.3507    1.8120    1.4313 H         1 <0>         0.0589
     37 H2         -1.3528    1.7589    0.9182 H         1 <0>         0.0691
     38 H3         -0.9289    1.4893    2.6258 H         1 <0>         0.0686
     39 H4         -1.1059   -0.2134   -0.7281 H         1 <0>         0.0925
     40 H5          0.5704    0.3065   -0.4805 H         1 <0>         0.0866
     41 H6         -0.6996   -1.9464   -2.3402 H         1 <0>         0.1805
     42 H7          4.1429   -2.8716    2.2876 H         1 <0>         0.0877
     43 H8          3.4035   -3.4998    3.7799 H         1 <0>         0.0994
     44 H9          2.7978   -4.0335    2.1935 H         1 <0>         0.1077
     45 H10         2.3161    1.9540    3.7907 H         1 <0>         0.4051
     46 H11         1.7832    3.8415    5.0316 H         1 <0>         0.0810
     47 H12         0.0837    3.4035    4.7348 H         1 <0>         0.0654
     48 H13         0.9457    2.7253    6.1367 H         1 <0>         0.0646
     49 H14         2.1550   -6.0371   -0.5970 H         1 <0>         0.4212
     50 H15         1.4264   -4.2455   -3.5514 H         1 <0>         0.1417
     51 H16         0.9637   -5.2539   -5.7468 H         1 <0>         0.1384
     52 H17         0.6596   -7.6871   -5.9482 H         1 <0>         0.1341
     53 H18         1.2900   -8.1185   -1.7441 H         1 <0>         0.1248
     54 H19         0.3115   -9.5724   -1.9663 H         1 <0>         0.0899
     55 H20         2.7007  -11.0378   -3.1803 H         1 <0>         0.1027
     56 H21         2.7679   -9.5805   -2.1591 H         1 <0>         0.1179
     57 H22         3.2258  -11.6224   -0.8275 H         1 <0>         0.1375
     58 H23         1.7201  -10.8368   -0.2964 H         1 <0>         0.1298
     59 H24        -0.4964  -13.2218   -1.8401 H         1 <0>         0.1409
     60 H25        -0.3755  -11.7373   -0.8666 H         1 <0>         0.1314
     61 H26        -1.0452  -11.2190   -3.1965 H         1 <0>         0.1230
     62 H27         0.4308  -12.0132   -3.7978 H         1 <0>         0.1020
     63 H28         1.0666  -12.9737    0.6470 H         1 <0>         0.1223
     64 H29         0.9641  -14.4048   -0.4064 H         1 <0>         0.1263
     65 H30         2.5532  -13.7272    0.0221 H         1 <0>         0.1255
     66 H31        -2.6086   -0.4591    1.1019 H         1 <0>         0.0670
     67 H32        -1.7046   -1.9372    1.5098 H         1 <0>         0.0492
     68 H33        -2.0040   -0.7041    2.7580 H         1 <0>         0.0672
     69 H34         1.8786  -13.0881   -2.1709 H         1 <0>         0.4273
@<TRIPOS>BOND
     1    1    2 1
     2    1   36 1
     3    1   37 1
     4    1   38 1
     5    2   11 1
     6    2    3 1
     7    2   35 1
     8    3    4 1
     9    3   39 1
    10    3   40 1
    11    4    9 ar
    12    4    5 ar
    13    5    6 ar
    14    5   41 1
    15    6    7 ar
    16    7    8 ar
    17    7   20 1
    18    8    9 ar
    19    9   10 1
    20   10   14 1
    21   10   11 2
    22   11   12 1
    23   12   13 2
    24   12   16 1
    25   13   14 1
    26   14   15 1
    27   15   42 1
    28   15   43 1
    29   15   44 1
    30   16   17 2
    31   16   18 am
    32   18   19 1
    33   18   45 1
    34   19   46 1
    35   19   47 1
    36   19   48 1
    37   20   21 1
    38   20   49 1
    39   21   26 ar
    40   21   22 ar
    41   22   23 ar
    42   22   50 1
    43   23   24 ar
    44   23   51 1
    45   24   25 ar
    46   24   52 1
    47   25   26 ar
    48   25   27 1
    49   26   53 1
    50   27   28 1
    51   28   33 1
    52   28   29 1
    53   28   54 1
    54   29   30 1
    55   29   55 1
    56   29   56 1
    57   30   31 1
    58   30   57 1
    59   30   58 1
    60   31   32 1
    61   31   34 1
    62   31   69 1
    63   32   33 1
    64   32   59 1
    65   32   60 1
    66   33   61 1
    67   33   62 1
    68   34   63 1
    69   34   64 1
    70   34   65 1
    71   35   66 1
    72   35   67 1
    73   35   68 1
@<TRIPOS>MOLECULE
CHEMBL458421
   54    58     0     0     0
SMALL
USER_CHARGES

@<TRIPOS>ATOM
      1 C1         -0.0151    1.3811    0.0164 C.ar      1 <0>        -0.0514
      2 C2          0.7830    1.3665    1.1454 C.ar      1 <0>        -0.1600
      3 C3          1.9913    0.6931    1.1318 C.ar      1 <0>         0.1404
      4 C4          2.4027    0.0307   -0.0186 C.ar      1 <0>         0.0807
      5 C5          1.5978    0.0476   -1.1514 C.ar      1 <0>         0.1423
      6 C6          0.3908    0.7233   -1.1300 C.ar      1 <0>        -0.1601
      7 F1          1.9938   -0.5945   -2.2721 F         1 <0>        -0.1217
      8 N1          3.6269   -0.6526   -0.0364 N.am      1 <0>        -0.6882
      9 C7          3.6854   -1.9408    0.3554 C.2       1 <0>         0.7140
     10 O1          2.6638   -2.5381    0.6356 O.2       1 <0>        -0.5703
     11 N2          4.8760   -2.5671    0.4366 N.am      1 <0>        -0.6418
     12 C8          4.9370   -3.9104    0.8451 C.2       1 <0>         0.0605
     13 C9          3.8820   -4.6924    1.1792 C.2       1 <0>         0.0486
     14 N3          4.3620   -5.9191    1.5140 N.pl3     1 <0>        -0.4511
     15 H1          3.8311   -6.6807    1.7953 H         1 <0>         0.4527
     16 N4          5.7561   -5.8929    1.3823 N.2       1 <0>        -0.2596
     17 C10         6.1097   -4.6895    0.9752 C.2       1 <0>         0.1160
     18 C11         7.4892   -4.2344    0.7053 C.2       1 <0>         0.3655
     19 N5          8.6124   -5.0069    0.8322 N.pl3     1 <0>        -0.5814
     20 H2          8.6439   -5.9354    1.1111 H         1 <0>         0.4300
     21 C12         9.6927   -4.2168    0.4887 C.ar      1 <0>         0.0581
     22 C13        11.0621   -4.4329    0.4235 C.ar      1 <0>        -0.1086
     23 C14        11.8980   -3.4080    0.0326 C.ar      1 <0>        -0.0900
     24 C15        11.3794   -2.1633   -0.2951 C.ar      1 <0>        -0.0868
     25 C16        10.0344   -1.9315   -0.2365 C.ar      1 <0>        -0.0369
     26 C17         9.1670   -2.9558    0.1562 C.ar      1 <0>         0.0557
     27 N6          7.8215   -3.0316    0.3027 N.2       1 <0>        -0.4782
     28 C18        12.3093   -1.0560   -0.7195 C.3       1 <0>         0.0977
     29 N7         12.4855   -1.0963   -2.1773 N.3       1 <0>        -0.5318
     30 C19        13.1946   -2.3166   -2.5888 C.3       1 <0>         0.0141
     31 C20        13.3036   -2.3467   -4.1156 C.3       1 <0>         0.0628
     32 O2         13.9628   -1.1598   -4.5650 O.3       1 <0>        -0.3858
     33 C21        13.2988    0.0477   -4.1823 C.3       1 <0>         0.0630
     34 C22        13.1898    0.1021   -2.6562 C.3       1 <0>         0.0170
     35 F2          2.7707    0.6797    2.2353 F         1 <0>        -0.1223
     36 H3         -0.9600    1.9040    0.0314 H         1 <0>         0.1494
     37 H4          0.4628    1.8818    2.0389 H         1 <0>         0.1489
     38 H5         -0.2354    0.7366   -2.0099 H         1 <0>         0.1490
     39 H6          4.4317   -0.1981   -0.3307 H         1 <0>         0.4134
     40 H7          5.6909   -2.0906    0.2131 H         1 <0>         0.4244
     41 H8          2.8441   -4.3938    1.1798 H         1 <0>         0.2134
     42 H9         11.4713   -5.3994    0.6781 H         1 <0>         0.1269
     43 H10        12.9638   -3.5752   -0.0185 H         1 <0>         0.1293
     44 H11         9.6416   -0.9587   -0.4931 H         1 <0>         0.1327
     45 H12        11.8846   -0.0944   -0.4312 H         1 <0>         0.0878
     46 H13        13.2759   -1.1869   -0.2329 H         1 <0>         0.0478
     47 H14        14.1935   -2.3217   -2.1525 H         1 <0>         0.0435
     48 H15        12.6424   -3.1916   -2.2460 H         1 <0>         0.0909
     49 H16        13.8784   -3.2206   -4.4223 H         1 <0>         0.0978
     50 H17        12.3055   -2.3957   -4.5508 H         1 <0>         0.0599
     51 H18        13.8700    0.9054   -4.5372 H         1 <0>         0.0988
     52 H19        12.3005    0.0683   -4.6195 H         1 <0>         0.0605
     53 H20        12.6340    0.9926   -2.3625 H         1 <0>         0.0882
     54 H21        14.1885    0.1355   -2.2209 H         1 <0>         0.0444
@<TRIPOS>BOND
     1    1    6 ar
     2    1    2 ar
     3    1   36 1
     4    2    3 ar
     5    2   37 1
     6    3    4 ar
     7    3   35 1
     8    4    5 ar
     9    4    8 1
    10    5    6 ar
    11    5    7 1
    12    6   38 1
    13    8    9 am
    14    8   39 1
    15    9   10 2
    16    9   11 am
    17   11   12 1
    18   11   40 1
    19   12   17 1
    20   12   13 2
    21   13   14 1
    22   13   41 1
    23   14   15 1
    24   14   16 1
    25   16   17 2
    26   17   18 1
    27   18   27 2
    28   18   19 1
    29   19   20 1
    30   19   21 1
    31   21   26 ar
    32   21   22 ar
    33   22   23 ar
    34   22   42 1
    35   23   24 ar
    36   23   43 1
    37   24   25 ar
    38   24   28 1
    39   25   26 ar
    40   25   44 1
    41   26   27 1
    42   28   29 1
    43   28   45 1
    44   28   46 1
    45   29   34 1
    46   29   30 1
    47   30   31 1
    48   30   47 1
    49   30   48 1
    50   31   32 1
    51   31   49 1
    52   31   50 1
    53   32   33 1
    54   33   34 1
    55   33   51 1
    56   33   52 1
    57   34   53 1
    58   34   54 1
@<TRIPOS>MOLECULE
CHEMBL458421
   54    58     0     0     0
SMALL
USER_CHARGES

@<TRIPOS>ATOM
      1 C1         -0.0151    1.3811    0.0164 C.ar      1 <0>        -0.0508
      2 C2          0.7830    1.3665    1.1454 C.ar      1 <0>        -0.1598
      3 C3          1.9913    0.6931    1.1318 C.ar      1 <0>         0.1410
      4 C4          2.4027    0.0307   -0.0186 C.ar      1 <0>         0.0793
      5 C5          1.5978    0.0476   -1.1514 C.ar      1 <0>         0.1430
      6 C6          0.3908    0.7233   -1.1300 C.ar      1 <0>        -0.1598
      7 F1          1.9938   -0.5945   -2.2721 F         1 <0>        -0.1216
      8 N1          3.6269   -0.6526   -0.0364 N.am      1 <0>        -0.6872
      9 C7          3.6854   -1.9408    0.3554 C.2       1 <0>         0.7156
     10 O1          2.6639   -2.5381    0.6356 O.2       1 <0>        -0.5613
     11 N2          4.8760   -2.5670    0.4366 N.am      1 <0>        -0.6416
     12 C8          4.9368   -3.9062    0.8439 C.2       1 <0>         0.1048
     13 C9          3.8497   -4.7146    1.1948 C.2       1 <0>         0.0535
     14 N3          4.2948   -5.9015    1.5184 N.2       1 <0>        -0.2427
     15 H1          6.2717   -6.6700    1.5687 H         1 <0>         0.4436
     16 N4          5.6891   -5.9150    1.3916 N.pl3     1 <0>        -0.4678
     17 C10         6.0833   -4.6735    0.9669 C.2       1 <0>         0.0785
     18 C11         7.4611   -4.2380    0.6956 C.2       1 <0>         0.3545
     19 N5          8.5771   -5.0246    0.8218 N.pl3     1 <0>        -0.5961
     20 H2          8.5985   -5.9531    1.1018 H         1 <0>         0.4232
     21 C12         9.6661   -4.2468    0.4749 C.ar      1 <0>         0.0598
     22 C13        11.0323   -4.4795    0.4073 C.ar      1 <0>        -0.1099
     23 C14        11.8802   -3.4654    0.0130 C.ar      1 <0>        -0.0884
     24 C15        11.3762   -2.2152   -0.3158 C.ar      1 <0>        -0.0847
     25 C16        10.0342   -1.9669   -0.2554 C.ar      1 <0>        -0.0372
     26 C17         9.1549   -2.9799    0.1414 C.ar      1 <0>         0.0578
     27 N6          7.8091   -3.0378    0.2901 N.2       1 <0>        -0.4759
     28 C18        12.3188   -1.1199   -0.7434 C.3       1 <0>         0.0969
     29 N7         12.4921   -1.1645   -2.2015 N.3       1 <0>        -0.5319
     30 C19        13.1857   -2.3939   -2.6122 C.3       1 <0>         0.0140
     31 C20        13.2917   -2.4277   -4.1392 C.3       1 <0>         0.0628
     32 O2         13.9646   -1.2496   -4.5915 O.3       1 <0>        -0.3854
     33 C21        13.3159   -0.0336   -4.2095 C.3       1 <0>         0.0629
     34 C22        13.2101    0.0245   -2.6833 C.3       1 <0>         0.0170
     35 F2          2.7707    0.6798    2.2353 F         1 <0>        -0.1223
     36 H3         -0.9600    1.9040    0.0314 H         1 <0>         0.1496
     37 H4          0.4628    1.8818    2.0389 H         1 <0>         0.1492
     38 H5         -0.2352    0.7369   -2.0100 H         1 <0>         0.1493
     39 H6          4.4317   -0.1981   -0.3307 H         1 <0>         0.4132
     40 H7          5.6909   -2.0906    0.2131 H         1 <0>         0.4237
     41 H8          2.8139   -4.4088    1.1984 H         1 <0>         0.2185
     42 H9         11.4302   -5.4505    0.6627 H         1 <0>         0.1270
     43 H10        12.9437   -3.6457   -0.0399 H         1 <0>         0.1302
     44 H11         9.6526   -0.9901   -0.5138 H         1 <0>         0.1338
     45 H12        11.9064   -0.1528   -0.4559 H         1 <0>         0.0884
     46 H13        13.2846   -1.2617   -0.2582 H         1 <0>         0.0484
     47 H14        14.1851   -2.4106   -2.1775 H         1 <0>         0.0438
     48 H15        12.6234   -3.2616   -2.2671 H         1 <0>         0.0902
     49 H16        13.8553   -3.3090   -4.4454 H         1 <0>         0.0979
     50 H17        12.2923   -2.4652   -4.5727 H         1 <0>         0.0599
     51 H18        13.8969    0.8166   -4.5667 H         1 <0>         0.0993
     52 H19        12.3172   -0.0015   -4.6451 H         1 <0>         0.0607
     53 H20        12.6657    0.9221   -2.3901 H         1 <0>         0.0885
     54 H21        14.2099    0.0465   -2.2497 H         1 <0>         0.0448
@<TRIPOS>BOND
     1    1    6 ar
     2    1    2 ar
     3    1   36 1
     4    2    3 ar
     5    2   37 1
     6    3    4 ar
     7    3   35 1
     8    4    5 ar
     9    4    8 1
    10    5    6 ar
    11    5    7 1
    12    6   38 1
    13    8    9 am
    14    8   39 1
    15    9   10 2
    16    9   11 am
    17   11   40 1
    18   11   12 1
    19   12   13 1
    20   12   17 2
    21   13   14 2
    22   13   41 1
    23   14   16 1
    24   15   16 1
    25   16   17 1
    26   17   18 1
    27   18   27 2
    28   18   19 1
    29   19   20 1
    30   19   21 1
    31   21   26 ar
    32   21   22 ar
    33   22   23 ar
    34   22   42 1
    35   23   24 ar
    36   23   43 1
    37   24   25 ar
    38   24   28 1
    39   25   26 ar
    40   25   44 1
    41   26   27 1
    42   28   29 1
    43   28   45 1
    44   28   46 1
    45   29   34 1
    46   29   30 1
    47   30   31 1
    48   30   47 1
    49   30   48 1
    50   31   32 1
    51   31   49 1
    52   31   50 1
    53   32   33 1
    54   33   34 1
    55   33   51 1
    56   33   52 1
    57   34   53 1
    58   34   54 1
@<TRIPOS>MOLECULE
CHEMBL193288
   45    48     0     0     0
SMALL
USER_CHARGES

@<TRIPOS>ATOM
      1 C1         -0.0187    1.5258    0.0104 C.3       1 <0>        -0.1465
      2 C2          0.0021   -0.0041    0.0020 C.3       1 <0>        -0.0603
      3 C3          0.7309   -0.5033    1.2229 C.ar      1 <0>        -0.0935
      4 C4          2.0505   -0.1469    1.4325 C.ar      1 <0>        -0.0517
      5 C5          2.7213   -0.6028    2.5504 C.ar      1 <0>        -0.1482
      6 C6          2.0692   -1.4198    3.4645 C.ar      1 <0>         0.1860
      7 C7          0.7440   -1.7759    3.2512 C.ar      1 <0>        -0.1546
      8 C8          0.0771   -1.3122    2.1341 C.ar      1 <0>        -0.0769
      9 N1          2.7461   -1.8838    4.5979 N.am      1 <0>        -0.5628
     10 C9          2.2018   -2.7568    5.6523 C.3       1 <0>         0.0557
     11 C10         3.3650   -2.9272    6.6093 C.2       1 <0>         0.5288
     12 O1          3.3805   -3.5729    7.6353 O.2       1 <0>        -0.4591
     13 N2          4.3784   -2.2124    6.0819 N.am      1 <0>        -0.6768
     14 C11         4.0226   -1.6243    4.9341 C.2       1 <0>         0.7026
     15 O2          4.7682   -0.9305    4.2709 O.2       1 <0>        -0.5198
     16 C12         0.7074   -0.4901   -1.2379 C.2       1 <0>         0.5255
     17 O3          1.7040   -1.1745   -1.1398 O.2       1 <0>        -0.4976
     18 N3          0.2309   -0.1642   -2.4557 N.am      1 <0>        -0.6359
     19 C13         0.8870   -0.6162   -3.6089 C.2       1 <0>         0.3034
     20 C14         2.0408   -1.4156   -3.6416 C.2       1 <0>        -0.2590
     21 C15         2.3585   -1.6329   -4.9380 C.2       1 <0>         0.1307
     22 N4          1.4439   -0.9974   -5.7005 N.pl3     1 <0>        -0.4674
     23 H1          1.4229   -0.9807   -6.6701 H         1 <0>         0.4390
     24 N5          0.5270   -0.3710   -4.8467 N.2       1 <0>        -0.3188
     25 C16         3.5267   -2.4406   -5.4419 C.3       1 <0>        -0.0986
     26 C17         4.1924   -1.9849   -6.7419 C.3       1 <0>        -0.1702
     27 C18         3.3266   -3.2462   -6.7272 C.3       1 <0>        -0.1700
     28 H2          1.0039    1.9031    0.0027 H         1 <0>         0.0668
     29 H3         -0.5459    1.8868   -0.8726 H         1 <0>         0.0658
     30 H4         -0.5289    1.8773    0.9072 H         1 <0>         0.0769
     31 H5         -1.0205   -0.3814    0.0098 H         1 <0>         0.1122
     32 H6          2.5572    0.4883    0.7210 H         1 <0>         0.1269
     33 H7          3.7520   -0.3244    2.7133 H         1 <0>         0.1541
     34 H8          0.2342   -2.4116    3.9600 H         1 <0>         0.1291
     35 H9         -0.9550   -1.5848    1.9701 H         1 <0>         0.1306
     36 H10         1.3611   -2.2758    6.1523 H         1 <0>         0.1337
     37 H11         1.9028   -3.7191    5.2369 H         1 <0>         0.1334
     38 H12         5.2582   -2.1362    6.4834 H         1 <0>         0.4377
     39 H13        -0.5660    0.3831   -2.5342 H         1 <0>         0.4160
     40 H14         2.5791   -1.7905   -2.7836 H         1 <0>         0.1731
     41 H15         4.1671   -2.8717   -4.6724 H         1 <0>         0.1342
     42 H16         3.7855   -1.1007   -7.2327 H         1 <0>         0.0948
     43 H17         5.2711   -2.1158   -6.8278 H         1 <0>         0.1080
     44 H18         3.8356   -4.2070   -6.8034 H         1 <0>         0.1079
     45 H19         2.3500   -3.1919   -7.2083 H         1 <0>         0.0948
@<TRIPOS>BOND
     1    1    2 1
     2    1   28 1
     3    1   29 1
     4    1   30 1
     5    2    3 1
     6    2   16 1
     7    2   31 1
     8    3    8 ar
     9    3    4 ar
    10    4    5 ar
    11    4   32 1
    12    5    6 ar
    13    5   33 1
    14    6    7 ar
    15    6    9 1
    16    7    8 ar
    17    7   34 1
    18    8   35 1
    19    9   14 am
    20    9   10 1
    21   10   11 1
    22   10   36 1
    23   10   37 1
    24   11   12 2
    25   11   13 am
    26   13   14 am
    27   13   38 1
    28   14   15 2
    29   16   17 2
    30   16   18 am
    31   18   19 1
    32   18   39 1
    33   19   24 2
    34   19   20 1
    35   20   21 2
    36   20   40 1
    37   21   22 1
    38   21   25 1
    39   22   23 1
    40   22   24 1
    41   25   27 1
    42   25   26 1
    43   25   41 1
    44   26   27 1
    45   26   42 1
    46   26   43 1
    47   27   44 1
    48   27   45 1
@<TRIPOS>MOLECULE
CHEMBL193288
   45    48     0     0     0
SMALL
USER_CHARGES

@<TRIPOS>ATOM
      1 C1         -0.0187    1.5258    0.0104 C.3       1 <0>        -0.1465
      2 C2          0.0021   -0.0041    0.0020 C.3       1 <0>        -0.0583
      3 C3          0.7309   -0.5033    1.2229 C.ar      1 <0>        -0.0965
      4 C4          2.0505   -0.1469    1.4325 C.ar      1 <0>        -0.0517
      5 C5          2.7213   -0.6028    2.5504 C.ar      1 <0>        -0.1479
      6 C6          2.0692   -1.4198    3.4645 C.ar      1 <0>         0.1881
      7 C7          0.7440   -1.7759    3.2512 C.ar      1 <0>        -0.1545
      8 C8          0.0771   -1.3122    2.1341 C.ar      1 <0>        -0.0761
      9 N1          2.7461   -1.8838    4.5979 N.am      1 <0>        -0.5632
     10 C9          2.2018   -2.7568    5.6523 C.3       1 <0>         0.0556
     11 C10         3.3650   -2.9272    6.6093 C.2       1 <0>         0.5288
     12 O1          3.3805   -3.5729    7.6353 O.2       1 <0>        -0.4585
     13 N2          4.3784   -2.2124    6.0819 N.am      1 <0>        -0.6766
     14 C11         4.0226   -1.6243    4.9341 C.2       1 <0>         0.7029
     15 O2          4.7682   -0.9305    4.2709 O.2       1 <0>        -0.5194
     16 C12         0.7074   -0.4901   -1.2379 C.2       1 <0>         0.5232
     17 O3          1.7040   -1.1745   -1.1398 O.2       1 <0>        -0.4872
     18 N3          0.2309   -0.1642   -2.4557 N.am      1 <0>        -0.6514
     19 C13         0.8838   -0.6140   -3.6033 C.2       1 <0>         0.3065
     20 C14         2.0052   -1.3844   -3.6407 C.2       1 <0>        -0.2693
     21 C15         2.3264   -1.6076   -4.9824 C.2       1 <0>         0.1220
     22 N4          1.4376   -0.9986   -5.7250 N.2       1 <0>        -0.2793
     23 H1         -0.2536    0.1528   -5.1630 H         1 <0>         0.4364
     24 N5          0.5141   -0.3688   -4.8810 N.pl3     1 <0>        -0.4911
     25 C16         3.4965   -2.4118   -5.4876 C.3       1 <0>        -0.0854
     26 C17         4.6226   -2.7185   -4.4984 C.3       1 <0>        -0.1631
     27 C18         4.8429   -1.6964   -5.6154 C.3       1 <0>        -0.1632
     28 H2          1.0039    1.9031    0.0027 H         1 <0>         0.0676
     29 H3         -0.5459    1.8868   -0.8726 H         1 <0>         0.0636
     30 H4         -0.5289    1.8773    0.9072 H         1 <0>         0.0783
     31 H5         -1.0205   -0.3814    0.0098 H         1 <0>         0.1123
     32 H6          2.5572    0.4883    0.7210 H         1 <0>         0.1266
     33 H7          3.7520   -0.3244    2.7133 H         1 <0>         0.1548
     34 H8          0.2342   -2.4116    3.9600 H         1 <0>         0.1297
     35 H9         -0.9550   -1.5848    1.9701 H         1 <0>         0.1304
     36 H10         1.3611   -2.2758    6.1523 H         1 <0>         0.1337
     37 H11         1.9028   -3.7191    5.2369 H         1 <0>         0.1336
     38 H12         5.2582   -2.1362    6.4834 H         1 <0>         0.4379
     39 H13        -0.5660    0.3831   -2.5342 H         1 <0>         0.4121
     40 H14         2.5501   -1.7566   -2.7858 H         1 <0>         0.1741
     41 H15         3.2582   -3.1724   -6.2311 H         1 <0>         0.1214
     42 H16         4.5172   -2.3387   -3.4822 H         1 <0>         0.1017
     43 H17         5.1254   -3.6812   -4.5909 H         1 <0>         0.1019
     44 H18         5.4905   -1.9866   -6.4426 H         1 <0>         0.1012
     45 H19         4.8823   -0.6441   -5.3340 H         1 <0>         0.0951
@<TRIPOS>BOND
     1    1    2 1
     2    1   28 1
     3    1   29 1
     4    1   30 1
     5    2    3 1
     6    2   16 1
     7    2   31 1
     8    3    8 ar
     9    3    4 ar
    10    4    5 ar
    11    4   32 1
    12    5    6 ar
    13    5   33 1
    14    6    7 ar
    15    6    9 1
    16    7    8 ar
    17    7   34 1
    18    8   35 1
    19    9   14 am
    20    9   10 1
    21   10   11 1
    22   10   36 1
    23   10   37 1
    24   11   12 2
    25   11   13 am
    26   13   14 am
    27   13   38 1
    28   14   15 2
    29   16   17 2
    30   16   18 am
    31   18   39 1
    32   18   19 1
    33   19   20 2
    34   19   24 1
    35   20   21 1
    36   20   40 1
    37   21   22 2
    38   21   25 1
    39   22   24 1
    40   23   24 1
    41   25   27 1
    42   25   26 1
    43   25   41 1
    44   26   27 1
    45   26   42 1
    46   26   43 1
    47   27   44 1
    48   27   45 1
@<TRIPOS>MOLECULE
CHEMBL193288
   45    48     0     0     0
SMALL
USER_CHARGES

@<TRIPOS>ATOM
      1 C1         -0.0187    1.5258    0.0104 C.3       1 <0>        -0.1464
      2 C2          0.0021   -0.0041    0.0020 C.3       1 <0>        -0.0602
      3 C3          0.7074   -0.4901   -1.2379 C.ar      1 <0>        -0.0939
      4 C4          2.0263   -0.1406   -1.4631 C.ar      1 <0>        -0.0512
      5 C5          2.6756   -0.5844   -2.5985 C.ar      1 <0>        -0.1484
      6 C6          2.0025   -1.3824   -3.5143 C.ar      1 <0>         0.1861
      7 C7          0.6781   -1.7315   -3.2852 C.ar      1 <0>        -0.1548
      8 C8          0.0362   -1.2892   -2.1451 C.ar      1 <0>        -0.0767
      9 N1          2.6574   -1.8333   -4.6658 N.am      1 <0>        -0.5628
     10 C9          2.0859   -2.6759   -5.7304 C.3       1 <0>         0.0557
     11 C10         3.2331   -2.8430   -6.7070 C.2       1 <0>         0.5288
     12 O1          3.2247   -3.4661   -7.7469 O.2       1 <0>        -0.4591
     13 N2          4.2642   -2.1542   -6.1791 N.am      1 <0>        -0.6768
     14 C11         3.9298   -1.5769   -5.0194 C.2       1 <0>         0.7026
     15 O2          4.6914   -0.8992   -4.3577 O.2       1 <0>        -0.5198
     16 C12         0.7309   -0.5033    1.2229 C.2       1 <0>         0.5254
     17 O3          1.7254   -1.1865    1.0985 O.2       1 <0>        -0.4976
     18 N3          0.2778   -0.1906    2.4531 N.am      1 <0>        -0.6359
     19 C13         0.9557   -0.6549    3.5886 C.2       1 <0>         0.3034
     20 C14         2.1162   -1.4452    3.5906 C.2       1 <0>        -0.2590
     21 C15         2.4562   -1.6798    4.8784 C.2       1 <0>         0.1306
     22 N4          1.5488   -1.0636    5.6649 N.pl3     1 <0>        -0.4673
     23 H1          1.5432   -1.0620    6.6349 H         1 <0>         0.4390
     24 N5          0.6200   -0.4222    4.8356 N.2       1 <0>        -0.3188
     25 C16         3.6382   -2.4863    5.3512 C.3       1 <0>        -0.0986
     26 C17         3.4749   -3.2873    6.6445 C.3       1 <0>        -0.1703
     27 C18         4.3413   -2.0264    6.6298 C.3       1 <0>        -0.1699
     28 H2          1.0039    1.9031    0.0027 H         1 <0>         0.0668
     29 H3         -0.5459    1.8868   -0.8726 H         1 <0>         0.0769
     30 H4         -0.5289    1.8773    0.9072 H         1 <0>         0.0657
     31 H5         -1.0205   -0.3814    0.0098 H         1 <0>         0.1122
     32 H6          2.5490    0.4803   -0.7507 H         1 <0>         0.1269
     33 H7          3.7055   -0.3108   -2.7740 H         1 <0>         0.1541
     34 H8          0.1519   -2.3517   -3.9957 H         1 <0>         0.1291
     35 H9         -0.9923   -1.5643   -1.9639 H         1 <0>         0.1306
     36 H10         1.7784   -3.6424   -5.3310 H         1 <0>         0.1336
     37 H11         1.2456   -2.1725   -6.2085 H         1 <0>         0.1335
     38 H12         5.1397   -2.0831   -6.5907 H         1 <0>         0.4377
     39 H13        -0.5174    0.3558    2.5526 H         1 <0>         0.4160
     40 H14         2.6437   -1.8024    2.7186 H         1 <0>         0.1731
     41 H15         4.2563   -2.9198    4.5650 H         1 <0>         0.1342
     42 H16         2.5126   -3.2309    7.1534 H         1 <0>         0.0947
     43 H17         3.9856   -4.2481    6.7093 H         1 <0>         0.1079
     44 H18         5.4220   -2.1576    6.6850 H         1 <0>         0.1080
     45 H19         3.9490   -1.1404    7.1290 H         1 <0>         0.0949
@<TRIPOS>BOND
     1    1    2 1
     2    1   28 1
     3    1   29 1
     4    1   30 1
     5    2    3 1
     6    2   16 1
     7    2   31 1
     8    3    8 ar
     9    3    4 ar
    10    4    5 ar
    11    4   32 1
    12    5    6 ar
    13    5   33 1
    14    6    7 ar
    15    6    9 1
    16    7    8 ar
    17    7   34 1
    18    8   35 1
    19    9   14 am
    20    9   10 1
    21   10   11 1
    22   10   36 1
    23   10   37 1
    24   11   12 2
    25   11   13 am
    26   13   14 am
    27   13   38 1
    28   14   15 2
    29   16   17 2
    30   16   18 am
    31   18   19 1
    32   18   39 1
    33   19   24 2
    34   19   20 1
    35   20   21 2
    36   20   40 1
    37   21   22 1
    38   21   25 1
    39   22   23 1
    40   22   24 1
    41   25   27 1
    42   25   26 1
    43   25   41 1
    44   26   27 1
    45   26   42 1
    46   26   43 1
    47   27   44 1
    48   27   45 1
@<TRIPOS>MOLECULE
CHEMBL193288
   45    48     0     0     0
SMALL
USER_CHARGES

@<TRIPOS>ATOM
      1 C1         -0.0187    1.5258    0.0104 C.3       1 <0>        -0.1464
      2 C2          0.0021   -0.0041    0.0020 C.3       1 <0>        -0.0582
      3 C3          0.7074   -0.4901   -1.2379 C.ar      1 <0>        -0.0970
      4 C4          2.0263   -0.1406   -1.4631 C.ar      1 <0>        -0.0511
      5 C5          2.6756   -0.5844   -2.5985 C.ar      1 <0>        -0.1480
      6 C6          2.0025   -1.3824   -3.5143 C.ar      1 <0>         0.1882
      7 C7          0.6781   -1.7315   -3.2852 C.ar      1 <0>        -0.1548
      8 C8          0.0362   -1.2892   -2.1451 C.ar      1 <0>        -0.0760
      9 N1          2.6574   -1.8333   -4.6658 N.am      1 <0>        -0.5632
     10 C9          2.0859   -2.6759   -5.7304 C.3       1 <0>         0.0556
     11 C10         3.2331   -2.8430   -6.7070 C.2       1 <0>         0.5288
     12 O1          3.2247   -3.4661   -7.7469 O.2       1 <0>        -0.4585
     13 N2          4.2642   -2.1542   -6.1791 N.am      1 <0>        -0.6766
     14 C11         3.9298   -1.5769   -5.0194 C.2       1 <0>         0.7029
     15 O2          4.6914   -0.8992   -4.3577 O.2       1 <0>        -0.5193
     16 C12         0.7309   -0.5033    1.2229 C.2       1 <0>         0.5231
     17 O3          1.7254   -1.1865    1.0985 O.2       1 <0>        -0.4872
     18 N3          0.2778   -0.1906    2.4531 N.am      1 <0>        -0.6514
     19 C13         0.9524   -0.6526    3.5830 C.2       1 <0>         0.3064
     20 C14         2.0743   -1.4232    3.5908 C.2       1 <0>        -0.2693
     21 C15         2.4219   -1.6594    4.9237 C.2       1 <0>         0.1220
     22 N4          1.5481   -1.0577    5.6895 N.2       1 <0>        -0.2793
     23 H1         -0.1431    0.1145    5.1724 H         1 <0>         0.4364
     24 N5          0.6139   -0.4114    4.8702 N.pl3     1 <0>        -0.4911
     25 C16         3.6012   -2.4691    5.3978 C.3       1 <0>        -0.0852
     26 C17         4.2736   -3.3978    4.3847 C.3       1 <0>        -0.1631
     27 C18         3.4187   -3.9840    5.5101 C.3       1 <0>        -0.1634
     28 H2          1.0039    1.9031    0.0027 H         1 <0>         0.0677
     29 H3         -0.5459    1.8868   -0.8726 H         1 <0>         0.0782
     30 H4         -0.5289    1.8773    0.9072 H         1 <0>         0.0635
     31 H5         -1.0205   -0.3814    0.0098 H         1 <0>         0.1122
     32 H6          2.5490    0.4803   -0.7507 H         1 <0>         0.1268
     33 H7          3.7055   -0.3108   -2.7740 H         1 <0>         0.1548
     34 H8          0.1519   -2.3517   -3.9957 H         1 <0>         0.1296
     35 H9         -0.9923   -1.5643   -1.9639 H         1 <0>         0.1304
     36 H10         1.7784   -3.6424   -5.3310 H         1 <0>         0.1337
     37 H11         1.2456   -2.1725   -6.2085 H         1 <0>         0.1335
     38 H12         5.1397   -2.0831   -6.5907 H         1 <0>         0.4379
     39 H13        -0.5174    0.3558    2.5526 H         1 <0>         0.4121
     40 H14         2.6017   -1.7876    2.7217 H         1 <0>         0.1741
     41 H15         4.2390   -1.9829    6.1360 H         1 <0>         0.1215
     42 H16         3.8630   -3.4232    3.3753 H         1 <0>         0.1015
     43 H17         5.3541   -3.5227    4.4562 H         1 <0>         0.1021
     44 H18         3.9367   -4.4945    6.3219 H         1 <0>         0.1012
     45 H19         2.4457   -4.3950    5.2411 H         1 <0>         0.0949
@<TRIPOS>BOND
     1    1    2 1
     2    1   28 1
     3    1   29 1
     4    1   30 1
     5    2    3 1
     6    2   16 1
     7    2   31 1
     8    3    8 ar
     9    3    4 ar
    10    4    5 ar
    11    4   32 1
    12    5    6 ar
    13    5   33 1
    14    6    7 ar
    15    6    9 1
    16    7    8 ar
    17    7   34 1
    18    8   35 1
    19    9   14 am
    20    9   10 1
    21   10   11 1
    22   10   36 1
    23   10   37 1
    24   11   12 2
    25   11   13 am
    26   13   14 am
    27   13   38 1
    28   14   15 2
    29   16   17 2
    30   16   18 am
    31   18   39 1
    32   18   19 1
    33   19   20 2
    34   19   24 1
    35   20   21 1
    36   20   40 1
    37   21   22 2
    38   21   25 1
    39   22   24 1
    40   23   24 1
    41   25   27 1
    42   25   26 1
    43   25   41 1
    44   26   27 1
    45   26   42 1
    46   26   43 1
    47   27   44 1
    48   27   45 1
@<TRIPOS>MOLECULE
CHEMBL1081119
   49    52     0     0     0
SMALL
USER_CHARGES

@<TRIPOS>ATOM
      1 C1         -0.0167    1.3781    0.0096 C.ar      1 <0>        -0.1410
      2 C2          1.1709    2.0855    0.0021 C.ar      1 <0>        -0.0582
      3 C3          2.3773    1.4107   -0.0130 C.ar      1 <0>        -0.1621
      4 C4          2.3960    0.0285   -0.0201 C.ar      1 <0>        -0.0559
      5 C5          1.2085   -0.6789   -0.0117 C.ar      1 <0>        -0.1018
      6 C6          0.0021   -0.0041    0.0020 C.ar      1 <0>        -0.0996
      7 C7         -1.2926   -0.7753    0.0107 C.3       1 <0>        -0.0998
      8 C8         -1.7450   -1.0285   -1.4288 C.3       1 <0>         0.0259
      9 H1         -0.9463   -1.5264   -1.9784 H         1 <0>         0.1579
     10 C9         -2.9907   -1.9168   -1.4231 C.3       1 <0>         0.1191
     11 N1         -3.4936   -2.0615   -2.7914 N.pl3     1 <0>        -0.6999
     12 C10        -4.6177   -2.8240   -3.0365 C.2       1 <0>         0.4041
     13 N2         -5.3318   -3.4654   -2.1407 N.2       1 <0>        -0.3143
     14 N3         -6.3063   -4.0706   -2.7234 N.2       1 <0>        -0.2455
     15 C11        -6.2533   -3.8401   -4.0128 C.2       1 <0>         0.2142
     16 O1         -5.1862   -3.0416   -4.2369 O.3       1 <0>        -0.2342
     17 C12        -7.1903   -4.3539   -5.0321 C.ar      1 <0>        -0.0108
     18 C13        -6.9988   -4.0230   -6.3860 C.ar      1 <0>        -0.1030
     19 C14        -7.8453   -4.4819   -7.3434 C.ar      1 <0>        -0.0733
     20 C15        -8.9308   -5.2997   -6.9848 C.ar      1 <0>        -0.0991
     21 C16        -9.8304   -5.7969   -7.9405 C.ar      1 <0>         0.1474
     22 N4        -10.8316   -6.5582   -7.5646 N.ar      1 <0>        -0.4756
     23 C17       -11.0448   -6.8916   -6.2989 C.ar      1 <0>         0.0855
     24 C18       -10.2306   -6.4616   -5.2959 C.ar      1 <0>        -0.1457
     25 C19        -9.1340   -5.6402   -5.6212 C.ar      1 <0>        -0.0285
     26 C20        -8.2485   -5.1632   -4.6478 C.ar      1 <0>        -0.0427
     27 N5         -2.0599    0.2523   -2.0756 N.4       1 <0>        -0.6411
     28 C21         3.6720    2.1819   -0.0222 C.3       1 <0>         0.5035
     29 F1          4.0857    2.4144    1.2938 F         1 <0>        -0.1686
     30 F2          4.6506    1.4423   -0.6949 F         1 <0>        -0.1714
     31 F3          3.4816    3.4050   -0.6742 F         1 <0>        -0.1728
     32 H2         -0.9591    1.9053    0.0259 H         1 <0>         0.1375
     33 H3          1.1563    3.1654    0.0076 H         1 <0>         0.1473
     34 H4          3.3385   -0.4987   -0.0326 H         1 <0>         0.1481
     35 H5          1.2231   -1.7588   -0.0179 H         1 <0>         0.1456
     36 H6         -1.1443   -1.7285    0.5180 H         1 <0>         0.1349
     37 H7         -2.0551   -0.1993    0.5352 H         1 <0>         0.1124
     38 H8         -2.7351   -2.8985   -1.0242 H         1 <0>         0.1248
     39 H9         -3.7596   -1.4603   -0.7997 H         1 <0>         0.1078
     40 H10        -3.0366   -1.6214   -3.5252 H         1 <0>         0.4108
     41 H11        -6.1668   -3.3947   -6.6678 H         1 <0>         0.1331
     42 H12        -7.6851   -4.2187   -8.3785 H         1 <0>         0.1457
     43 H13        -9.6993   -5.5531   -8.9845 H         1 <0>         0.1698
     44 H14       -11.8880   -7.5216   -6.0569 H         1 <0>         0.1612
     45 H15       -10.4222   -6.7444   -4.2714 H         1 <0>         0.1465
     46 H16        -8.3904   -5.4191   -3.6082 H         1 <0>         0.1514
     47 H17        -1.2384    0.8381   -2.0794 H         1 <0>         0.4394
     48 H18        -2.3583    0.0853   -3.0249 H         1 <0>         0.4326
     49 H19        -2.7994    0.7132   -1.5668 H         1 <0>         0.4385
@<TRIPOS>BOND
     1    1    6 ar
     2    1    2 ar
     3    1   32 1
     4    2    3 ar
     5    2   33 1
     6    3    4 ar
     7    3   28 1
     8    4    5 ar
     9    4   34 1
    10    5    6 ar
    11    5   35 1
    12    6    7 1
    13    7    8 1
    14    7   36 1
    15    7   37 1
    16    8    9 1
    17    8   10 1
    18    8   27 1
    19   10   11 1
    20   10   38 1
    21   10   39 1
    22   11   12 1
    23   11   40 1
    24   12   16 1
    25   12   13 2
    26   13   14 1
    27   14   15 2
    28   15   16 1
    29   15   17 1
    30   17   26 ar
    31   17   18 ar
    32   18   19 ar
    33   18   41 1
    34   19   20 ar
    35   19   42 1
    36   20   25 ar
    37   20   21 ar
    38   21   22 ar
    39   21   43 1
    40   22   23 ar
    41   23   24 ar
    42   23   44 1
    43   24   25 ar
    44   24   45 1
    45   25   26 ar
    46   26   46 1
    47   27   47 1
    48   27   48 1
    49   27   49 1
    50   28   29 1
    51   28   30 1
    52   28   31 1
@<TRIPOS>MOLECULE
CHEMBL147122
   49    53     0     0     0
SMALL
USER_CHARGES

@<TRIPOS>ATOM
      1 C1         -0.1646    1.5036   -0.4774 C.3       1 <0>        -0.1745
      2 C2         -0.1519   -0.0030   -0.5089 C.2       1 <0>         0.5152
      3 O1          0.7633   -0.5906   -1.0454 O.2       1 <0>        -0.5211
      4 N1         -1.1577   -0.6974    0.0592 N.am      1 <0>        -0.6708
      5 C3         -1.1934   -2.0838   -0.0486 C.ar      1 <0>         0.2244
      6 C4         -0.0051   -2.8186   -0.0517 C.ar      1 <0>        -0.1172
      7 C5         -0.0402   -4.1906   -0.1578 C.ar      1 <0>        -0.0678
      8 C6         -1.2530   -4.8605   -0.2629 C.ar      1 <0>        -0.1074
      9 C7         -2.4441   -4.1502   -0.2618 C.ar      1 <0>         0.0091
     10 C8         -2.4152   -2.7474   -0.1482 C.ar      1 <0>        -0.1882
     11 C9         -3.8166   -2.2704   -0.1679 C.2       1 <0>         0.4852
     12 O2         -4.1881   -1.1157   -0.0949 O.2       1 <0>        -0.4319
     13 C10        -4.6774   -3.4638   -0.2935 C.2       1 <0>        -0.3153
     14 C11        -3.8587   -4.5837   -0.3578 C.2       1 <0>         0.1555
     15 N2         -4.6626   -5.6624   -0.4762 N.pl3     1 <0>        -0.4255
     16 H1         -4.3675   -6.5847   -0.5333 H         1 <0>         0.4463
     17 N3         -5.9922   -5.2275   -0.5025 N.2       1 <0>        -0.2751
     18 C12        -6.0158   -3.9161   -0.3817 C.2       1 <0>         0.2081
     19 C13        -7.2276   -3.0634   -0.3651 C.ar      1 <0>        -0.0967
     20 C14        -7.2565   -1.9057    0.4125 C.ar      1 <0>        -0.0220
     21 C15        -8.3847   -1.1143    0.4263 C.ar      1 <0>        -0.2014
     22 C16        -9.4937   -1.4692   -0.3337 C.ar      1 <0>         0.2372
     23 C17        -9.4674   -2.6230   -1.1093 C.ar      1 <0>        -0.2046
     24 C18        -8.3391   -3.4141   -1.1316 C.ar      1 <0>        -0.0307
     25 N4        -10.6346   -0.6667   -0.3177 N.pl3     1 <0>        -0.6291
     26 C19       -11.8639   -1.0839   -1.0107 C.3       1 <0>         0.0841
     27 C20       -13.0366   -0.9608   -0.0312 C.3       1 <0>         0.0456
     28 O3        -13.0413    0.3519    0.5349 O.3       1 <0>        -0.3790
     29 C21       -11.8768    0.6617    1.3042 C.3       1 <0>         0.0453
     30 C22       -10.6464    0.6190    0.3978 C.3       1 <0>         0.0833
     31 H2          0.7229    1.8851   -0.9823 H         1 <0>         0.1000
     32 H3         -1.0570    1.8701   -0.9846 H         1 <0>         0.0961
     33 H4         -0.1688    1.8453    0.5577 H         1 <0>         0.0951
     34 H5         -1.8567   -0.2304    0.5432 H         1 <0>         0.4218
     35 H6          0.9436   -2.3088    0.0290 H         1 <0>         0.1549
     36 H7          0.8829   -4.7512   -0.1598 H         1 <0>         0.1436
     37 H8         -1.2682   -5.9372   -0.3460 H         1 <0>         0.1357
     38 H9         -6.3957   -1.6300    1.0035 H         1 <0>         0.1281
     39 H10        -8.4075   -0.2179    1.0283 H         1 <0>         0.1278
     40 H11       -10.3302   -2.8971   -1.6983 H         1 <0>         0.1271
     41 H12        -8.3172   -4.3074   -1.7382 H         1 <0>         0.1275
     42 H13       -12.0363   -0.4392   -1.8726 H         1 <0>         0.0729
     43 H14       -11.7670   -2.1187   -1.3392 H         1 <0>         0.0944
     44 H15       -13.9734   -1.1319   -0.5615 H         1 <0>         0.1061
     45 H16       -12.9268   -1.6994    0.7629 H         1 <0>         0.0566
     46 H17       -11.9791    1.6578    1.7346 H         1 <0>         0.1064
     47 H18       -11.7627   -0.0710    2.1032 H         1 <0>         0.0562
     48 H19        -9.7436    0.7114    1.0016 H         1 <0>         0.0954
     49 H20       -10.6941    1.4381   -0.3198 H         1 <0>         0.0731
@<TRIPOS>BOND
     1    1    2 1
     2    1   31 1
     3    1   32 1
     4    1   33 1
     5    2    3 2
     6    2    4 am
     7    4    5 1
     8    4   34 1
     9    5   10 ar
    10    5    6 ar
    11    6    7 ar
    12    6   35 1
    13    7    8 ar
    14    7   36 1
    15    8    9 ar
    16    8   37 1
    17    9   14 1
    18    9   10 ar
    19   10   11 1
    20   11   12 2
    21   11   13 1
    22   13   18 1
    23   13   14 2
    24   14   15 1
    25   15   16 1
    26   15   17 1
    27   17   18 2
    28   18   19 1
    29   19   24 ar
    30   19   20 ar
    31   20   21 ar
    32   20   38 1
    33   21   22 ar
    34   21   39 1
    35   22   23 ar
    36   22   25 1
    37   23   24 ar
    38   23   40 1
    39   24   41 1
    40   25   30 1
    41   25   26 1
    42   26   27 1
    43   26   42 1
    44   26   43 1
    45   27   28 1
    46   27   44 1
    47   27   45 1
    48   28   29 1
    49   29   30 1
    50   29   46 1
    51   29   47 1
    52   30   48 1
    53   30   49 1
@<TRIPOS>MOLECULE
CHEMBL147122
   49    53     0     0     0
SMALL
USER_CHARGES

@<TRIPOS>ATOM
      1 C1         -0.6217    1.4925   -0.1376 C.3       1 <0>        -0.1732
      2 C2         -0.6080   -0.0144   -0.1520 C.2       1 <0>         0.5134
      3 O1         -1.1272   -0.6342    0.7519 O.2       1 <0>        -0.5193
      4 N1         -0.0187   -0.6732   -1.1695 N.am      1 <0>        -0.6672
      5 C3          0.0965   -2.0600   -1.1268 C.ar      1 <0>         0.2240
      6 C4          0.1033   -2.7223    0.0967 C.ar      1 <0>        -0.1331
      7 C5          0.2169   -4.0964    0.1424 C.ar      1 <0>        -0.0627
      8 C6          0.3259   -4.8324   -1.0263 C.ar      1 <0>        -0.1096
      9 C7          0.3214   -4.1927   -2.2590 C.ar      1 <0>         0.0423
     10 C8          0.2002   -2.7931   -2.3156 C.ar      1 <0>        -0.1943
     11 C9          0.2144   -2.3697   -3.7305 C.2       1 <0>         0.4929
     12 O2          0.1331   -1.2262   -4.1384 O.2       1 <0>        -0.4481
     13 C10         0.3447   -3.5770   -4.5567 C.2       1 <0>        -0.3378
     14 C11         0.4218   -4.7197   -3.6426 C.2       1 <0>         0.1260
     15 N2          0.5426   -5.7986   -4.3757 N.2       1 <0>        -0.2373
     16 H1          0.6497   -6.0647   -6.4692 H         1 <0>         0.4476
     17 N3          0.5674   -5.4442   -5.7282 N.pl3     1 <0>        -0.4681
     18 C12         0.4336   -4.0925   -5.8431 C.2       1 <0>         0.2515
     19 C13         0.4123   -3.3192   -7.0986 C.ar      1 <0>        -0.1271
     20 C14        -0.5231   -2.2952   -7.2751 C.ar      1 <0>        -0.0112
     21 C15        -0.5399   -1.5751   -8.4483 C.ar      1 <0>        -0.2004
     22 C16         0.3725   -1.8656   -9.4581 C.ar      1 <0>         0.2448
     23 C17         1.3050   -2.8842   -9.2859 C.ar      1 <0>        -0.2024
     24 C18         1.3312   -3.6046   -8.1129 C.ar      1 <0>        -0.0391
     25 N4          0.3521   -1.1356  -10.6441 N.pl3     1 <0>        -0.6254
     26 C19         1.2239   -1.4991  -11.7724 C.3       1 <0>         0.0824
     27 C20         0.3636   -1.5923  -13.0377 C.3       1 <0>         0.0457
     28 O3         -0.3930   -0.3879  -13.1823 O.3       1 <0>        -0.3778
     29 C21        -1.3167   -0.1457  -12.1184 C.3       1 <0>         0.0454
     30 C22        -0.5464    0.0181  -10.8080 C.3       1 <0>         0.0812
     31 H2          0.2651    1.8590    0.3794 H         1 <0>         0.1018
     32 H3         -0.6255    1.8657   -1.1617 H         1 <0>         0.0861
     33 H4         -1.5147    1.8428    0.3800 H         1 <0>         0.1008
     34 H5          0.3250   -0.1811   -1.9314 H         1 <0>         0.4223
     35 H6          0.0197   -2.1586    1.0141 H         1 <0>         0.1587
     36 H7          0.2213   -4.6023    1.0966 H         1 <0>         0.1424
     37 H8          0.4150   -5.9076   -0.9785 H         1 <0>         0.1380
     38 H9         -1.2320   -2.0697   -6.4921 H         1 <0>         0.1298
     39 H10        -1.2622   -0.7839   -8.5853 H         1 <0>         0.1311
     40 H11         2.0114   -3.1073  -10.0717 H         1 <0>         0.1301
     41 H12         2.0580   -4.3920   -7.9782 H         1 <0>         0.1251
     42 H13         1.9903   -0.7355  -11.9050 H         1 <0>         0.0753
     43 H14         1.6949   -2.4625  -11.5769 H         1 <0>         0.0947
     44 H15         1.0077   -1.7242  -13.9071 H         1 <0>         0.1074
     45 H16        -0.3154   -2.4410  -12.9546 H         1 <0>         0.0568
     46 H17        -1.8813    0.7631  -12.3263 H         1 <0>         0.1080
     47 H18        -2.0017   -0.9891  -12.0319 H         1 <0>         0.0567
     48 H19        -1.2472    0.0590   -9.9742 H         1 <0>         0.0963
     49 H20         0.0387    0.9372  -10.8418 H         1 <0>         0.0757
@<TRIPOS>BOND
     1    1    2 1
     2    1   31 1
     3    1   32 1
     4    1   33 1
     5    2    3 2
     6    2    4 am
     7    4    5 1
     8    4   34 1
     9    5   10 ar
    10    5    6 ar
    11    6    7 ar
    12    6   35 1
    13    7    8 ar
    14    7   36 1
    15    8    9 ar
    16    8   37 1
    17    9   14 1
    18    9   10 ar
    19   10   11 1
    20   11   12 2
    21   11   13 1
    22   13   14 1
    23   13   18 2
    24   14   15 2
    25   15   17 1
    26   16   17 1
    27   17   18 1
    28   18   19 1
    29   19   24 ar
    30   19   20 ar
    31   20   21 ar
    32   20   38 1
    33   21   22 ar
    34   21   39 1
    35   22   23 ar
    36   22   25 1
    37   23   24 ar
    38   23   40 1
    39   24   41 1
    40   25   30 1
    41   25   26 1
    42   26   27 1
    43   26   42 1
    44   26   43 1
    45   27   28 1
    46   27   44 1
    47   27   45 1
    48   28   29 1
    49   29   30 1
    50   29   46 1
    51   29   47 1
    52   30   48 1
    53   30   49 1
@<TRIPOS>MOLECULE
CHEMBL507249
   49    52     0     0     0
SMALL
USER_CHARGES

@<TRIPOS>ATOM
      1 C1         -0.0169    1.3938    0.0097 C.ar      1 <0>        -0.2958
      2 C2          1.1896    2.0690    0.0018 C.ar      1 <0>         0.1977
      3 N1          2.3189    1.3778   -0.0127 N.ar      1 <0>        -0.5770
      4 C3          2.3077    0.0526   -0.0197 C.ar      1 <0>         0.5745
      5 N2          1.1755   -0.6332   -0.0130 N.ar      1 <0>        -0.5712
      6 C4          0.0021   -0.0041    0.0020 C.ar      1 <0>         0.3109
      7 C5         -1.2644   -0.7738    0.0105 C.2       1 <0>        -0.2117
      8 C6         -2.5269   -0.2521    0.0198 C.2       1 <0>         0.1036
      9 N3         -3.3933   -1.2824    0.0247 N.pl3     1 <0>        -0.4672
     10 H1         -4.3607   -1.2113    0.0313 H         1 <0>         0.4453
     11 N4         -2.6585   -2.4740    0.0183 N.2       1 <0>        -0.2909
     12 C7         -1.3864   -2.1782    0.0041 C.2       1 <0>         0.1327
     13 C8         -0.2481   -3.1657   -0.0120 C.3       1 <0>        -0.0242
     14 C9         -0.3474   -4.0380   -1.2650 C.3       1 <0>        -0.1040
     15 C10         0.8083   -5.0405   -1.2813 C.3       1 <0>        -0.1090
     16 C11         0.7328   -5.9262   -0.0360 C.3       1 <0>         0.1038
     17 C12         0.8321   -5.0538    1.2170 C.3       1 <0>        -0.1481
     18 C13        -0.3236   -4.0513    1.2333 C.3       1 <0>        -0.1042
     19 O1          1.8122   -6.8625   -0.0513 O.3       1 <0>        -0.5693
     20 N5          3.5106   -0.6319   -0.0349 N.pl3     1 <0>        -0.6927
     21 C14         4.7747    0.1086   -0.0429 C.3       1 <0>         0.1580
     22 C15         5.1891    0.4307   -1.4936 C.3       1 <0>        -0.1339
     23 C16         6.7309    0.2822   -1.4900 C.3       1 <0>        -0.1252
     24 C17         6.9550   -0.9335   -0.5568 C.3       1 <0>        -0.1246
     25 C18         5.8975   -0.7588    0.5527 C.3       1 <0>        -0.1333
     26 H2         -0.9521    1.9336    0.0260 H         1 <0>         0.1387
     27 H3          1.2108    3.1488    0.0071 H         1 <0>         0.1656
     28 H4         -2.7834    0.7970    0.0233 H         1 <0>         0.1858
     29 H5          0.6997   -2.6274   -0.0181 H         1 <0>         0.1290
     30 H6         -1.2952   -4.5763   -1.2588 H         1 <0>         0.0667
     31 H7         -0.2936   -3.4071   -2.1522 H         1 <0>         0.0673
     32 H8          0.7376   -5.6620   -2.1740 H         1 <0>         0.0698
     33 H9          1.7561   -4.5023   -1.2875 H         1 <0>         0.0711
     34 H10        -0.2150   -6.4644   -0.0299 H         1 <0>         0.0544
     35 H11         0.7783   -5.6848    2.1042 H         1 <0>         0.0647
     36 H12         1.7799   -4.5156    1.2108 H         1 <0>         0.0723
     37 H13        -0.2529   -3.4299    2.1260 H         1 <0>         0.0637
     38 H14        -1.2714   -4.5896    1.2395 H         1 <0>         0.0659
     39 H15         1.8272   -7.4580    0.7105 H         1 <0>         0.3772
     40 H16         3.5167   -1.6019   -0.0401 H         1 <0>         0.4110
     41 H17         4.6709    1.0301    0.5299 H         1 <0>         0.0948
     42 H18         4.7389   -0.2807   -2.1859 H         1 <0>         0.0676
     43 H19         4.9046    1.4502   -1.7541 H         1 <0>         0.0709
     44 H20         7.1010    0.0723   -2.4935 H         1 <0>         0.0679
     45 H21         7.2040    1.1752   -1.0815 H         1 <0>         0.0694
     46 H22         6.7900   -1.8652   -1.0978 H         1 <0>         0.0670
     47 H23         7.9593   -0.9096   -0.1337 H         1 <0>         0.0684
     48 H24         6.3392   -0.2578    1.4141 H         1 <0>         0.0755
     49 H25         5.5019   -1.7307    0.8477 H         1 <0>         0.0712
@<TRIPOS>BOND
     1    1    6 ar
     2    1    2 ar
     3    1   26 1
     4    2    3 ar
     5    2   27 1
     6    3    4 ar
     7    4    5 ar
     8    4   20 1
     9    5    6 ar
    10    6    7 1
    11    7   12 1
    12    7    8 2
    13    8    9 1
    14    8   28 1
    15    9   10 1
    16    9   11 1
    17   11   12 2
    18   12   13 1
    19   13   18 1
    20   13   14 1
    21   13   29 1
    22   14   15 1
    23   14   30 1
    24   14   31 1
    25   15   16 1
    26   15   32 1
    27   15   33 1
    28   16   17 1
    29   16   19 1
    30   16   34 1
    31   17   18 1
    32   17   35 1
    33   17   36 1
    34   18   37 1
    35   18   38 1
    36   19   39 1
    37   20   21 1
    38   20   40 1
    39   21   25 1
    40   21   22 1
    41   21   41 1
    42   22   23 1
    43   22   42 1
    44   22   43 1
    45   23   24 1
    46   23   44 1
    47   23   45 1
    48   24   25 1
    49   24   46 1
    50   24   47 1
    51   25   48 1
    52   25   49 1
@<TRIPOS>MOLECULE
CHEMBL507249
   49    52     0     0     0
SMALL
USER_CHARGES

@<TRIPOS>ATOM
      1 C1         -0.0169    1.3938    0.0097 C.ar      1 <0>        -0.2898
      2 C2          1.1896    2.0690    0.0018 C.ar      1 <0>         0.1971
      3 N1          2.3189    1.3778   -0.0127 N.ar      1 <0>        -0.5773
      4 C3          2.3077    0.0526   -0.0197 C.ar      1 <0>         0.5739
      5 N2          1.1755   -0.6332   -0.0130 N.ar      1 <0>        -0.5788
      6 C4          0.0021   -0.0041    0.0020 C.ar      1 <0>         0.3116
      7 C5         -1.2644   -0.7738    0.0105 C.2       1 <0>        -0.2180
      8 C6         -2.5671   -0.2354    0.0258 C.2       1 <0>         0.0868
      9 N3         -3.4155   -1.2285    0.0291 N.2       1 <0>        -0.2893
     10 H1         -3.0785   -3.3209    0.0154 H         1 <0>         0.4407
     11 N4         -2.6961   -2.4295    0.0161 N.pl3     1 <0>        -0.4670
     12 C7         -1.3827   -2.1348   -0.0011 C.2       1 <0>         0.1613
     13 C8         -0.2483   -3.1265   -0.0256 C.3       1 <0>        -0.0508
     14 C9         -0.3555   -3.9931   -1.2820 C.3       1 <0>        -0.1078
     15 C10         0.7962   -5.0000   -1.3068 C.3       1 <0>        -0.1094
     16 C11         0.7217   -5.8907   -0.0650 C.3       1 <0>         0.1037
     17 C12         0.8289   -5.0242    1.1914 C.3       1 <0>        -0.1483
     18 C13        -0.3228   -4.0173    1.2162 C.3       1 <0>        -0.1081
     19 O1          1.7974   -6.8312   -0.0882 O.3       1 <0>        -0.5674
     20 N5          3.5106   -0.6319   -0.0349 N.pl3     1 <0>        -0.6938
     21 C14         4.7747    0.1086   -0.0429 C.3       1 <0>         0.1582
     22 C15         5.1891    0.4307   -1.4936 C.3       1 <0>        -0.1338
     23 C16         6.7309    0.2822   -1.4900 C.3       1 <0>        -0.1253
     24 C17         6.9550   -0.9335   -0.5568 C.3       1 <0>        -0.1246
     25 C18         5.8975   -0.7588    0.5527 C.3       1 <0>        -0.1332
     26 H2         -0.9521    1.9336    0.0260 H         1 <0>         0.1416
     27 H3          1.2107    3.1488    0.0071 H         1 <0>         0.1662
     28 H4         -2.8196    0.8146    0.0338 H         1 <0>         0.1913
     29 H5          0.7015   -2.5920   -0.0328 H         1 <0>         0.1436
     30 H6         -1.3054   -4.5277   -1.2747 H         1 <0>         0.0590
     31 H7         -0.3025   -3.3586   -2.1666 H         1 <0>         0.0741
     32 H8          0.7198   -5.6174   -2.2018 H         1 <0>         0.0727
     33 H9          1.7461   -4.4655   -1.3140 H         1 <0>         0.0745
     34 H10        -0.2282   -6.4253   -0.0577 H         1 <0>         0.0534
     35 H11         0.7758   -5.6587    2.0760 H         1 <0>         0.0676
     36 H12         1.7788   -4.4896    1.1841 H         1 <0>         0.0757
     37 H13        -0.2465   -3.3999    2.1113 H         1 <0>         0.0707
     38 H14        -1.2727   -4.5518    1.2235 H         1 <0>         0.0582
     39 H15         1.8127   -7.4300    0.6710 H         1 <0>         0.3787
     40 H16         3.5167   -1.6019   -0.0401 H         1 <0>         0.4098
     41 H17         4.6709    1.0301    0.5299 H         1 <0>         0.0951
     42 H18         4.7389   -0.2807   -2.1859 H         1 <0>         0.0672
     43 H19         4.9046    1.4502   -1.7541 H         1 <0>         0.0712
     44 H20         7.1010    0.0723   -2.4935 H         1 <0>         0.0679
     45 H21         7.2040    1.1752   -1.0815 H         1 <0>         0.0697
     46 H22         6.7900   -1.8652   -1.0978 H         1 <0>         0.0666
     47 H23         7.9593   -0.9096   -0.1337 H         1 <0>         0.0684
     48 H24         6.3392   -0.2578    1.4141 H         1 <0>         0.0755
     49 H25         5.5019   -1.7307    0.8477 H         1 <0>         0.0705
@<TRIPOS>BOND
     1    1    6 ar
     2    1    2 ar
     3    1   26 1
     4    2    3 ar
     5    2   27 1
     6    3    4 ar
     7    4    5 ar
     8    4   20 1
     9    5    6 ar
    10    6    7 1
    11    7    8 1
    12    7   12 2
    13    8    9 2
    14    8   28 1
    15    9   11 1
    16   10   11 1
    17   11   12 1
    18   12   13 1
    19   13   18 1
    20   13   14 1
    21   13   29 1
    22   14   15 1
    23   14   30 1
    24   14   31 1
    25   15   16 1
    26   15   32 1
    27   15   33 1
    28   16   17 1
    29   16   19 1
    30   16   34 1
    31   17   18 1
    32   17   35 1
    33   17   36 1
    34   18   37 1
    35   18   38 1
    36   19   39 1
    37   20   21 1
    38   20   40 1
    39   21   25 1
    40   21   22 1
    41   21   41 1
    42   22   23 1
    43   22   42 1
    44   22   43 1
    45   23   24 1
    46   23   44 1
    47   23   45 1
    48   24   25 1
    49   24   46 1
    50   24   47 1
    51   25   48 1
    52   25   49 1
@<TRIPOS>MOLECULE
CHEMBL147232
   62    66     0     0     0
SMALL
USER_CHARGES

@<TRIPOS>ATOM
      1 C1         -0.0318    1.3667   -0.0114 C.ar      1 <0>        -0.0640
      2 C2          1.1517    2.0950   -0.0238 C.ar      1 <0>        -0.0935
      3 C3          2.3736    1.4397   -0.0353 C.ar      1 <0>         0.0168
      4 C4          2.4058    0.0323   -0.0343 C.ar      1 <0>        -0.1723
      5 C5          1.2135   -0.6897   -0.0214 C.ar      1 <0>         0.1984
      6 C6         -0.0071   -0.0094   -0.0104 C.ar      1 <0>        -0.1130
      7 N1          1.2385   -2.0804   -0.0209 N.am      1 <0>        -0.6411
      8 C7          0.2977   -2.7711    0.6530 C.2       1 <0>         0.5053
      9 O1         -0.6169   -2.1837    1.1909 O.2       1 <0>        -0.5057
     10 C8          0.3821   -4.2733    0.7383 C.3       1 <0>        -0.0295
     11 N2         -0.7516   -4.7839    1.5204 N.4       1 <0>        -0.3716
     12 C9         -0.6472   -4.3016    2.9028 C.3       1 <0>        -0.0195
     13 C10        -1.8678   -4.7634    3.7018 C.3       1 <0>        -0.1235
     14 C11        -1.9255   -6.2937    3.6963 C.3       1 <0>        -0.1251
     15 C12        -1.9592   -6.7883    2.2474 C.3       1 <0>        -0.1391
     16 C13        -0.7352   -6.2515    1.5023 C.3       1 <0>        -0.0040
     17 C14        -3.1678   -6.7537    4.4148 C.2       1 <0>         0.5198
     18 O2         -3.9329   -5.9389    4.8856 O.2       1 <0>        -0.5268
     19 N3         -3.4286   -8.0706    4.5343 N.am      1 <0>        -0.8498
     20 C15         3.8274   -0.3809   -0.0480 C.2       1 <0>         0.4885
     21 O3          4.2488   -1.5202   -0.0511 O.2       1 <0>        -0.4365
     22 C16         4.6373    0.8572   -0.0572 C.2       1 <0>        -0.3212
     23 C17         3.7687    1.9412   -0.0497 C.2       1 <0>         0.1482
     24 N4          4.5277    3.0580   -0.0587 N.pl3     1 <0>        -0.4209
     25 H1          4.1965    3.9697   -0.0561 H         1 <0>         0.4486
     26 N5          5.8738    2.6754   -0.0719 N.2       1 <0>        -0.2631
     27 C18         5.9464    1.3695   -0.0707 C.2       1 <0>         0.1643
     28 C19         7.2142    0.5548   -0.0815 C.3       1 <0>        -0.0129
     29 C20         8.0451    0.8880    1.1592 C.3       1 <0>        -0.1102
     30 C21         9.3322    0.0609    1.1482 C.3       1 <0>        -0.1188
     31 C22        10.1391    0.3898   -0.1094 C.3       1 <0>        -0.1234
     32 C23         9.3082    0.0566   -1.3501 C.3       1 <0>        -0.1189
     33 C24         8.0211    0.8837   -1.3392 C.3       1 <0>        -0.1104
     34 H2         -0.9792    1.8850    0.0021 H         1 <0>         0.1492
     35 H3          1.1197    3.1745   -0.0249 H         1 <0>         0.1425
     36 H4         -0.9333   -0.5649   -0.0004 H         1 <0>         0.1545
     37 H5          1.9331   -2.5531   -0.5056 H         1 <0>         0.4291
     38 H6          0.3509   -4.6965   -0.2657 H         1 <0>         0.1675
     39 H7          1.3158   -4.5577    1.2235 H         1 <0>         0.1674
     40 H8          0.2580   -4.7020    3.3594 H         1 <0>         0.1294
     41 H9         -0.6029   -3.2125    2.9049 H         1 <0>         0.1514
     42 H10        -1.7875   -4.4059    4.7283 H         1 <0>         0.1207
     43 H11        -2.7736   -4.3634    3.2462 H         1 <0>         0.0996
     44 H12        -1.0440   -6.6935    4.1975 H         1 <0>         0.1180
     45 H13        -1.9443   -7.8781    2.2343 H         1 <0>         0.1200
     46 H14        -2.8670   -6.4303    1.7616 H         1 <0>         0.0976
     47 H15        -0.7560   -6.6020    0.4704 H         1 <0>         0.1394
     48 H16         0.1719   -6.6103    1.9887 H         1 <0>         0.1365
     49 H17        -2.8167   -8.7223    4.1577 H         1 <0>         0.4030
     50 H18        -4.2282   -8.3667    4.9968 H         1 <0>         0.4119
     51 H19         6.9643   -0.5062   -0.0773 H         1 <0>         0.0962
     52 H20         8.2950    1.9490    1.1550 H         1 <0>         0.0717
     53 H21         7.4703    0.6537    2.0552 H         1 <0>         0.0624
     54 H22         9.9242    0.2983    2.0321 H         1 <0>         0.0669
     55 H23         9.0824   -1.0001    1.1524 H         1 <0>         0.0636
     56 H24        10.3890    1.4508   -0.1136 H         1 <0>         0.0644
     57 H25        11.0561   -0.1994   -0.1172 H         1 <0>         0.0649
     58 H26         9.8830    0.2910   -2.2461 H         1 <0>         0.0672
     59 H27         9.0583   -1.0043   -1.3459 H         1 <0>         0.0638
     60 H28         7.4291    0.6464   -2.2231 H         1 <0>         0.0632
     61 H29         8.2709    1.9447   -1.3434 H         1 <0>         0.0717
     62 H30        -1.6145   -4.4532    1.1153 H         1 <0>         0.4312
@<TRIPOS>BOND
     1    1    6 ar
     2    1    2 ar
     3    1   34 1
     4    2    3 ar
     5    2   35 1
     6    3   23 1
     7    3    4 ar
     8    4    5 ar
     9    4   20 1
    10    5    6 ar
    11    5    7 1
    12    6   36 1
    13    7    8 am
    14    7   37 1
    15    8    9 2
    16    8   10 1
    17   10   11 1
    18   10   38 1
    19   10   39 1
    20   11   16 1
    21   11   12 1
    22   11   62 1
    23   12   13 1
    24   12   40 1
    25   12   41 1
    26   13   14 1
    27   13   42 1
    28   13   43 1
    29   14   15 1
    30   14   17 1
    31   14   44 1
    32   15   16 1
    33   15   45 1
    34   15   46 1
    35   16   47 1
    36   16   48 1
    37   17   18 2
    38   17   19 am
    39   19   49 1
    40   19   50 1
    41   20   21 2
    42   20   22 1
    43   22   27 1
    44   22   23 2
    45   23   24 1
    46   24   25 1
    47   24   26 1
    48   26   27 2
    49   27   28 1
    50   28   33 1
    51   28   29 1
    52   28   51 1
    53   29   30 1
    54   29   52 1
    55   29   53 1
    56   30   31 1
    57   30   54 1
    58   30   55 1
    59   31   32 1
    60   31   56 1
    61   31   57 1
    62   32   33 1
    63   32   58 1
    64   32   59 1
    65   33   60 1
    66   33   61 1
@<TRIPOS>MOLECULE
CHEMBL147232
   62    66     0     0     0
SMALL
USER_CHARGES

@<TRIPOS>ATOM
      1 C1         -0.0312    1.3699   -0.0112 C.ar      1 <0>        -0.0629
      2 C2          1.1498    2.0944   -0.0227 C.ar      1 <0>        -0.0910
      3 C3          2.3736    1.4383   -0.0337 C.ar      1 <0>         0.0481
      4 C4          2.4085    0.0326   -0.0332 C.ar      1 <0>        -0.1728
      5 C5          1.2078   -0.6884   -0.0219 C.ar      1 <0>         0.1933
      6 C6         -0.0067   -0.0092   -0.0106 C.ar      1 <0>        -0.1166
      7 N1          1.2293   -2.0801   -0.0213 N.am      1 <0>        -0.6400
      8 C7          0.2875   -2.7683    0.6538 C.2       1 <0>         0.5041
      9 O1         -0.6252   -2.1785    1.1924 O.2       1 <0>        -0.5063
     10 C8          0.3684   -4.2707    0.7396 C.3       1 <0>        -0.0294
     11 N2         -0.7658   -4.7783    1.5230 N.4       1 <0>        -0.3715
     12 C9         -0.6588   -4.2958    2.9052 C.3       1 <0>        -0.0194
     13 C10        -1.8797   -4.7543    3.7055 C.3       1 <0>        -0.1236
     14 C11        -1.9411   -6.2845    3.7007 C.3       1 <0>        -0.1250
     15 C12        -1.9774   -6.7795    2.2519 C.3       1 <0>        -0.1391
     16 C13        -0.7529   -6.2459    1.5055 C.3       1 <0>        -0.0039
     17 C14        -3.1838   -6.7412    4.4206 C.2       1 <0>         0.5198
     18 O2         -3.9464   -5.9244    4.8918 O.2       1 <0>        -0.5265
     19 N3         -3.4476   -8.0574    4.5408 N.am      1 <0>        -0.8500
     20 C15         3.8171   -0.4108   -0.0460 C.2       1 <0>         0.4971
     21 O3          4.2070   -1.5625   -0.0492 O.2       1 <0>        -0.4507
     22 C16         4.6654    0.7952   -0.0547 C.2       1 <0>        -0.3503
     23 C17         3.7654    1.9521   -0.0470 C.2       1 <0>         0.1162
     24 N4          4.5195    3.0234   -0.0551 N.2       1 <0>        -0.2263
     25 H1          6.6222    3.2340   -0.0757 H         1 <0>         0.4503
     26 N5          5.8624    2.6310   -0.0676 N.pl3     1 <0>        -0.4602
     27 C18         5.9369    1.2858   -0.0673 C.2       1 <0>         0.2129
     28 C19         7.2026    0.4679   -0.0782 C.3       1 <0>        -0.0372
     29 C20         8.0341    0.7984    1.1628 C.3       1 <0>        -0.1147
     30 C21         9.3192   -0.0319    1.1517 C.3       1 <0>        -0.1187
     31 C22        10.1271    0.2957   -0.1056 C.3       1 <0>        -0.1249
     32 C23         9.2956   -0.0348   -1.3467 C.3       1 <0>        -0.1188
     33 C24         8.0106    0.7955   -1.3355 C.3       1 <0>        -0.1149
     34 H2         -0.9782    1.8890    0.0019 H         1 <0>         0.1484
     35 H3          1.1184    3.1740   -0.0234 H         1 <0>         0.1452
     36 H4         -0.9333   -0.5638   -0.0016 H         1 <0>         0.1529
     37 H5          1.9221   -2.5547   -0.5068 H         1 <0>         0.4282
     38 H6          0.3352   -4.6942   -0.2642 H         1 <0>         0.1668
     39 H7          1.3019   -4.5572    1.2240 H         1 <0>         0.1666
     40 H8          0.2459   -4.6981    3.3610 H         1 <0>         0.1290
     41 H9         -0.6119   -3.2068    2.9067 H         1 <0>         0.1519
     42 H10        -1.7975   -4.3966    4.7318 H         1 <0>         0.1206
     43 H11        -2.7850   -4.3523    3.2506 H         1 <0>         0.0997
     44 H12        -1.0601   -6.6862    4.2011 H         1 <0>         0.1177
     45 H13        -1.9651   -7.8694    2.2393 H         1 <0>         0.1197
     46 H14        -2.8848   -6.4195    1.7669 H         1 <0>         0.0977
     47 H15        -0.7755   -6.5967    0.4737 H         1 <0>         0.1391
     48 H16         0.1538   -6.6067    1.9911 H         1 <0>         0.1361
     49 H17        -2.8376   -8.7107    4.1639 H         1 <0>         0.4029
     50 H18        -4.2474   -8.3514    5.0042 H         1 <0>         0.4118
     51 H19         6.9501   -0.5924   -0.0746 H         1 <0>         0.1093
     52 H20         8.2866    1.8588    1.1592 H         1 <0>         0.0649
     53 H21         7.4585    0.5650    2.0586 H         1 <0>         0.0698
     54 H22         9.9116    0.2035    2.0358 H         1 <0>         0.0702
     55 H23         9.0667   -1.0922    1.1553 H         1 <0>         0.0672
     56 H24        10.3796    1.3560   -0.1092 H         1 <0>         0.0641
     57 H25        11.0426   -0.2958   -0.1136 H         1 <0>         0.0684
     58 H26         9.8712    0.1986   -2.2424 H         1 <0>         0.0705
     59 H27         9.0431   -1.0951   -1.3431 H         1 <0>         0.0675
     60 H28         7.4182    0.5601   -2.2197 H         1 <0>         0.0706
     61 H29         8.2631    1.8559   -1.3391 H         1 <0>         0.0649
     62 H30        -1.6283   -4.4457    1.1186 H         1 <0>         0.4312
@<TRIPOS>BOND
     1    1    6 ar
     2    1    2 ar
     3    1   34 1
     4    2    3 ar
     5    2   35 1
     6    3   23 1
     7    3    4 ar
     8    4    5 ar
     9    4   20 1
    10    5    6 ar
    11    5    7 1
    12    6   36 1
    13    7    8 am
    14    7   37 1
    15    8    9 2
    16    8   10 1
    17   10   11 1
    18   10   38 1
    19   10   39 1
    20   11   16 1
    21   11   12 1
    22   11   62 1
    23   12   13 1
    24   12   40 1
    25   12   41 1
    26   13   14 1
    27   13   42 1
    28   13   43 1
    29   14   15 1
    30   14   17 1
    31   14   44 1
    32   15   16 1
    33   15   45 1
    34   15   46 1
    35   16   47 1
    36   16   48 1
    37   17   18 2
    38   17   19 am
    39   19   49 1
    40   19   50 1
    41   20   21 2
    42   20   22 1
    43   22   23 1
    44   22   27 2
    45   23   24 2
    46   24   26 1
    47   25   26 1
    48   26   27 1
    49   27   28 1
    50   28   33 1
    51   28   29 1
    52   28   51 1
    53   29   30 1
    54   29   52 1
    55   29   53 1
    56   30   31 1
    57   30   54 1
    58   30   55 1
    59   31   32 1
    60   31   56 1
    61   31   57 1
    62   32   33 1
    63   32   58 1
    64   32   59 1
    65   33   60 1
    66   33   61 1
@<TRIPOS>MOLECULE
CHEMBL358390
   56    60     0     0     0
SMALL
USER_CHARGES

@<TRIPOS>ATOM
      1 C1         -0.5575    0.7041   -0.0173 C.3       1 <0>         0.0256
      2 O1         -0.0191   -0.5686    0.3464 O.3       1 <0>        -0.3161
      3 C2          0.5858   -1.2864   -0.6364 C.ar      1 <0>         0.1389
      4 C3          0.6646   -0.7737   -1.9231 C.ar      1 <0>        -0.2114
      5 C4          1.2803   -1.5050   -2.9202 C.ar      1 <0>        -0.0563
      6 C5          1.8174   -2.7472   -2.6369 C.ar      1 <0>        -0.1533
      7 C6          1.7397   -3.2606   -1.3554 C.ar      1 <0>        -0.0565
      8 C7          1.1305   -2.5305   -0.3534 C.ar      1 <0>        -0.1538
      9 C8          2.4881   -3.5431   -3.7267 C.3       1 <0>         0.1848
     10 N1          3.9136   -3.2078   -3.7695 N.am      1 <0>        -0.7329
     11 C9          4.7188   -3.8019   -4.6725 C.2       1 <0>         0.7070
     12 O2          4.2621   -4.6160   -5.4514 O.2       1 <0>        -0.5695
     13 N2          6.0302   -3.4935   -4.7118 N.am      1 <0>        -0.6801
     14 C10         6.8787   -4.1733   -5.5791 C.ar      1 <0>         0.2476
     15 C11         6.4166   -4.5911   -6.8298 C.ar      1 <0>        -0.1139
     16 C12         7.2564   -5.2635   -7.6884 C.ar      1 <0>        -0.0679
     17 C13         8.5698   -5.5349   -7.3244 C.ar      1 <0>        -0.1078
     18 C14         9.0485   -5.1291   -6.0879 C.ar      1 <0>         0.0080
     19 C15         8.1963   -4.4363   -5.2072 C.ar      1 <0>        -0.1909
     20 C16         8.9735   -4.1291   -3.9855 C.2       1 <0>         0.4852
     21 O3          8.5702   -3.5422   -3.0008 O.2       1 <0>        -0.4318
     22 C17        10.3322   -4.6709   -4.1901 C.2       1 <0>        -0.3140
     23 C18        10.3739   -5.2751   -5.4397 C.2       1 <0>         0.1587
     24 N3         11.6205   -5.7675   -5.6061 N.pl3     1 <0>        -0.4248
     25 H1         11.9444   -6.2345   -6.3921 H         1 <0>         0.4470
     26 N4         12.3668   -5.4909   -4.4553 N.2       1 <0>        -0.2716
     27 C19        11.6126   -4.8237   -3.6065 C.2       1 <0>         0.2011
     28 C20        12.0238   -4.3415   -2.2667 C.ar      1 <0>        -0.0730
     29 C21        11.5051   -3.1485   -1.7639 C.ar      1 <0>        -0.0348
     30 C22        11.8897   -2.7027   -0.5172 C.ar      1 <0>        -0.1526
     31 C23        12.7928   -3.4398    0.2373 C.ar      1 <0>         0.1440
     32 C24        13.3111   -4.6280   -0.2605 C.ar      1 <0>        -0.2134
     33 C25        12.9259   -5.0825   -1.5038 C.ar      1 <0>        -0.0424
     34 O4         13.1705   -2.9973    1.4650 O.3       1 <0>        -0.3147
     35 C26        14.1025   -3.8046    2.1872 C.3       1 <0>         0.0250
     36 H2          0.2413    1.3416   -0.3963 H         1 <0>         0.0572
     37 H3         -1.3140    0.5710   -0.7906 H         1 <0>         0.0573
     38 H4         -1.0104    1.1705    0.8576 H         1 <0>         0.1025
     39 H5          0.2446    0.1962   -2.1450 H         1 <0>         0.1309
     40 H6          1.3420   -1.1063   -3.9221 H         1 <0>         0.1279
     41 H7          2.1597   -4.2313   -1.1367 H         1 <0>         0.1327
     42 H8          1.0740   -2.9300    0.6484 H         1 <0>         0.1341
     43 H9          2.3712   -4.6076   -3.5237 H         1 <0>         0.0788
     44 H10         2.0296   -3.3036   -4.6862 H         1 <0>         0.0784
     45 H11         4.2780   -2.5583   -3.1480 H         1 <0>         0.4021
     46 H12         6.3822   -2.7973   -4.1353 H         1 <0>         0.4170
     47 H13         5.3977   -4.3861   -7.1235 H         1 <0>         0.1579
     48 H14         6.8914   -5.5833   -8.6532 H         1 <0>         0.1433
     49 H15         9.2193   -6.0635   -8.0063 H         1 <0>         0.1350
     50 H16        10.8032   -2.5744   -2.3505 H         1 <0>         0.1361
     51 H17        11.4884   -1.7790   -0.1272 H         1 <0>         0.1374
     52 H18        14.0133   -5.1990    0.3288 H         1 <0>         0.1336
     53 H19        13.3259   -6.0090   -1.8886 H         1 <0>         0.1312
     54 H20        13.6756   -4.7940    2.3510 H         1 <0>         0.0576
     55 H21        15.0244   -3.8972    1.6129 H         1 <0>         0.0576
     56 H22        14.3186   -3.3384    3.1484 H         1 <0>         0.1021
@<TRIPOS>BOND
     1    1    2 1
     2    1   36 1
     3    1   37 1
     4    1   38 1
     5    2    3 1
     6    3    8 ar
     7    3    4 ar
     8    4    5 ar
     9    4   39 1
    10    5    6 ar
    11    5   40 1
    12    6    7 ar
    13    6    9 1
    14    7    8 ar
    15    7   41 1
    16    8   42 1
    17    9   10 1
    18    9   43 1
    19    9   44 1
    20   10   11 am
    21   10   45 1
    22   11   12 2
    23   11   13 am
    24   13   14 1
    25   13   46 1
    26   14   19 ar
    27   14   15 ar
    28   15   16 ar
    29   15   47 1
    30   16   17 ar
    31   16   48 1
    32   17   18 ar
    33   17   49 1
    34   18   23 1
    35   18   19 ar
    36   19   20 1
    37   20   21 2
    38   20   22 1
    39   22   27 1
    40   22   23 2
    41   23   24 1
    42   24   25 1
    43   24   26 1
    44   26   27 2
    45   27   28 1
    46   28   33 ar
    47   28   29 ar
    48   29   30 ar
    49   29   50 1
    50   30   31 ar
    51   30   51 1
    52   31   32 ar
    53   31   34 1
    54   32   33 ar
    55   32   52 1
    56   33   53 1
    57   34   35 1
    58   35   54 1
    59   35   55 1
    60   35   56 1
@<TRIPOS>MOLECULE
CHEMBL358390
   56    60     0     0     0
SMALL
USER_CHARGES

@<TRIPOS>ATOM
      1 C1          0.6689    1.8618    0.3511 C.3       1 <0>         0.0255
      2 O1          0.2617    0.5871   -0.1503 O.3       1 <0>        -0.3163
      3 C2          0.9260    0.1102   -1.2357 C.ar      1 <0>         0.1385
      4 C3          1.9526    0.8512   -1.8029 C.ar      1 <0>        -0.2110
      5 C4          2.6267    0.3640   -2.9059 C.ar      1 <0>        -0.0559
      6 C5          2.2787   -0.8608   -3.4449 C.ar      1 <0>        -0.1529
      7 C6          1.2556   -1.6010   -2.8818 C.ar      1 <0>        -0.0570
      8 C7          0.5825   -1.1210   -1.7749 C.ar      1 <0>        -0.1545
      9 C8          3.0154   -1.3897   -4.6485 C.3       1 <0>         0.1844
     10 N1          4.1638   -2.1853   -4.2075 N.am      1 <0>        -0.7335
     11 C9          4.9737   -2.7616   -5.1176 C.2       1 <0>         0.7056
     12 O2          4.7513   -2.6212   -6.3046 O.2       1 <0>        -0.5668
     13 N2          6.0302   -3.4935   -4.7118 N.am      1 <0>        -0.6770
     14 C10         6.7978   -4.1846   -5.6451 C.ar      1 <0>         0.2481
     15 C11         6.2417   -4.5632   -6.8630 C.ar      1 <0>        -0.1312
     16 C12         6.9994   -5.2485   -7.7898 C.ar      1 <0>        -0.0617
     17 C13         8.3205   -5.5678   -7.5205 C.ar      1 <0>        -0.1108
     18 C14         8.8967   -5.2001   -6.3117 C.ar      1 <0>         0.0416
     19 C15         8.1339   -4.4958   -5.3634 C.ar      1 <0>        -0.1982
     20 C16         8.9762   -4.2218   -4.1817 C.2       1 <0>         0.4927
     21 O3          8.6295   -3.6354   -3.1736 O.2       1 <0>        -0.4474
     22 C17        10.3080   -4.7849   -4.4421 C.2       1 <0>        -0.3315
     23 C18        10.2617   -5.4079   -5.7676 C.2       1 <0>         0.1283
     24 N3         11.4463   -5.9161   -6.0015 N.2       1 <0>        -0.2352
     25 H1         13.2049   -5.9652   -4.8311 H         1 <0>         0.4480
     26 N4         12.2786   -5.6861   -4.9016 N.pl3     1 <0>        -0.4663
     27 C19        11.5931   -4.9833   -3.9561 C.2       1 <0>         0.2411
     28 C20        12.1113   -4.5419   -2.6473 C.ar      1 <0>        -0.1009
     29 C21        11.8367   -3.2523   -2.1835 C.ar      1 <0>        -0.0253
     30 C22        12.3226   -2.8443   -0.9609 C.ar      1 <0>        -0.1500
     31 C23        13.0852   -3.7125   -0.1892 C.ar      1 <0>         0.1515
     32 C24        13.3611   -4.9953   -0.6466 C.ar      1 <0>        -0.2104
     33 C25        12.8735   -5.4139   -1.8650 C.ar      1 <0>        -0.0517
     34 O4         13.5626   -3.3061    1.0153 O.3       1 <0>        -0.3119
     35 C26        14.3394   -4.2488    1.7569 C.3       1 <0>         0.0238
     36 H2          1.7175    1.8183    0.6454 H         1 <0>         0.0572
     37 H3          0.5403    2.6157   -0.4255 H         1 <0>         0.0574
     38 H4          0.0594    2.1235    1.2161 H         1 <0>         0.1024
     39 H5          2.2243    1.8082   -1.3827 H         1 <0>         0.1309
     40 H6          3.4260    0.9404   -3.3478 H         1 <0>         0.1281
     41 H7          0.9854   -2.5573   -3.3048 H         1 <0>         0.1328
     42 H8         -0.2136   -1.7016   -1.3327 H         1 <0>         0.1339
     43 H9          2.3455   -2.0149   -5.2388 H         1 <0>         0.0796
     44 H10         3.3637   -0.5551   -5.2569 H         1 <0>         0.0782
     45 H11         4.3412   -2.2972   -3.2604 H         1 <0>         0.4016
     46 H12         6.2557   -3.5387   -3.7695 H         1 <0>         0.4176
     47 H13         5.2127   -4.3200   -7.0835 H         1 <0>         0.1623
     48 H14         6.5595   -5.5388   -8.7324 H         1 <0>         0.1422
     49 H15         8.9042   -6.1049   -8.2534 H         1 <0>         0.1374
     50 H16        11.2447   -2.5767   -2.7830 H         1 <0>         0.1380
     51 H17        12.1109   -1.8481   -0.6017 H         1 <0>         0.1408
     52 H18        13.9545   -5.6668   -0.0438 H         1 <0>         0.1367
     53 H19        13.0843   -6.4127   -2.2177 H         1 <0>         0.1290
     54 H20        13.7367   -5.1331    1.9641 H         1 <0>         0.0590
     55 H21        15.2160   -4.5345    1.1757 H         1 <0>         0.0586
     56 H22        14.6577   -3.7978    2.6968 H         1 <0>         0.1043
@<TRIPOS>BOND
     1    1    2 1
     2    1   36 1
     3    1   37 1
     4    1   38 1
     5    2    3 1
     6    3    8 ar
     7    3    4 ar
     8    4    5 ar
     9    4   39 1
    10    5    6 ar
    11    5   40 1
    12    6    7 ar
    13    6    9 1
    14    7    8 ar
    15    7   41 1
    16    8   42 1
    17    9   10 1
    18    9   43 1
    19    9   44 1
    20   10   11 am
    21   10   45 1
    22   11   12 2
    23   11   13 am
    24   13   14 1
    25   13   46 1
    26   14   19 ar
    27   14   15 ar
    28   15   16 ar
    29   15   47 1
    30   16   17 ar
    31   16   48 1
    32   17   18 ar
    33   17   49 1
    34   18   23 1
    35   18   19 ar
    36   19   20 1
    37   20   21 2
    38   20   22 1
    39   22   23 1
    40   22   27 2
    41   23   24 2
    42   24   26 1
    43   25   26 1
    44   26   27 1
    45   27   28 1
    46   28   33 ar
    47   28   29 ar
    48   29   30 ar
    49   29   50 1
    50   30   31 ar
    51   30   51 1
    52   31   32 ar
    53   31   34 1
    54   32   33 ar
    55   32   52 1
    56   33   53 1
    57   34   35 1
    58   35   54 1
    59   35   55 1
    60   35   56 1
@<TRIPOS>MOLECULE
CHEMBL147018
   41    44     0     0     0
SMALL
USER_CHARGES

@<TRIPOS>ATOM
      1 C1         -0.0300    1.3667    0.0423 C.ar      1 <0>        -0.0639
      2 C2          1.1539    2.0946    0.0382 C.ar      1 <0>        -0.1128
      3 C3          2.3754    1.4391    0.0144 C.ar      1 <0>         0.0129
      4 C4          2.4070    0.0317   -0.0056 C.ar      1 <0>        -0.1996
      5 C5          1.2143   -0.6899   -0.0006 C.ar      1 <0>         0.2504
      6 C6         -0.0060   -0.0092    0.0228 C.ar      1 <0>        -0.1261
      7 N1          1.2386   -2.0802   -0.0208 N.am      1 <0>        -0.6762
      8 C7          0.1858   -2.7656   -0.5087 C.2       1 <0>         0.7083
      9 O1         -0.7406   -2.1708   -1.0245 O.2       1 <0>        -0.5701
     10 N2          0.1599   -4.1106   -0.4250 N.am      1 <0>        -0.8547
     11 C8          3.8281   -0.3817   -0.0292 C.2       1 <0>         0.4876
     12 O2          4.2490   -1.5211   -0.0506 O.2       1 <0>        -0.4392
     13 C9          4.6386    0.8560   -0.0222 C.2       1 <0>        -0.3205
     14 C10         3.7706    1.9402    0.0038 C.2       1 <0>         0.1555
     15 N3          4.5302    3.0566    0.0098 N.pl3     1 <0>        -0.4282
     16 H1          4.1995    3.9683    0.0266 H         1 <0>         0.4456
     17 N4          5.8761    2.6736   -0.0125 N.2       1 <0>        -0.2728
     18 C11         5.9480    1.3678   -0.0315 C.2       1 <0>         0.1611
     19 C12         7.2153    0.5527   -0.0580 C.3       1 <0>        -0.0128
     20 C13         8.0498    0.8668    1.1853 C.3       1 <0>        -0.1092
     21 C14         9.3364    0.0394    1.1584 C.3       1 <0>        -0.1192
     22 C15        10.1401    0.3867   -0.0964 C.3       1 <0>        -0.1216
     23 C16         9.3056    0.0726   -1.3397 C.3       1 <0>        -0.1192
     24 C17         8.0189    0.9001   -1.3128 C.3       1 <0>        -0.1096
     25 H2         -0.9771    1.8852    0.0654 H         1 <0>         0.1435
     26 H3          1.1224    3.1740    0.0533 H         1 <0>         0.1347
     27 H4         -0.9324   -0.5643    0.0266 H         1 <0>         0.1634
     28 H5          2.0134   -2.5567    0.3164 H         1 <0>         0.4190
     29 H6          0.8990   -4.5852   -0.0135 H         1 <0>         0.4028
     30 H7         -0.5979   -4.6039   -0.7762 H         1 <0>         0.4224
     31 H8          6.9649   -0.5081   -0.0691 H         1 <0>         0.0969
     32 H9          8.3002    1.9276    1.1963 H         1 <0>         0.0701
     33 H10         7.4773    0.6194    2.0792 H         1 <0>         0.0633
     34 H11         9.9309    0.2631    2.0441 H         1 <0>         0.0651
     35 H12         9.0860   -1.0214    1.1473 H         1 <0>         0.0645
     36 H13        10.3905    1.4475   -0.0853 H         1 <0>         0.0628
     37 H14        11.0567   -0.2028   -0.1155 H         1 <0>         0.0628
     38 H15         9.8781    0.3201   -2.2336 H         1 <0>         0.0651
     39 H16         9.0552   -0.9882   -1.3507 H         1 <0>         0.0645
     40 H17         7.4244    0.6763   -2.1985 H         1 <0>         0.0633
     41 H18         8.2694    1.9609   -1.3017 H         1 <0>         0.0701
@<TRIPOS>BOND
     1    1    6 ar
     2    1    2 ar
     3    1   25 1
     4    2    3 ar
     5    2   26 1
     6    3   14 1
     7    3    4 ar
     8    4    5 ar
     9    4   11 1
    10    5    6 ar
    11    5    7 1
    12    6   27 1
    13    7    8 am
    14    7   28 1
    15    8    9 2
    16    8   10 am
    17   10   29 1
    18   10   30 1
    19   11   12 2
    20   11   13 1
    21   13   18 1
    22   13   14 2
    23   14   15 1
    24   15   16 1
    25   15   17 1
    26   17   18 2
    27   18   19 1
    28   19   24 1
    29   19   20 1
    30   19   31 1
    31   20   21 1
    32   20   32 1
    33   20   33 1
    34   21   22 1
    35   21   34 1
    36   21   35 1
    37   22   23 1
    38   22   36 1
    39   22   37 1
    40   23   24 1
    41   23   38 1
    42   23   39 1
    43   24   40 1
    44   24   41 1
@<TRIPOS>MOLECULE
CHEMBL147018
   41    44     0     0     0
SMALL
USER_CHARGES

@<TRIPOS>ATOM
      1 C1         -0.0300    1.3696    0.0429 C.ar      1 <0>        -0.0610
      2 C2          1.1514    2.0940    0.0380 C.ar      1 <0>        -0.1110
      3 C3          2.3748    1.4379    0.0135 C.ar      1 <0>         0.0430
      4 C4          2.4093    0.0322   -0.0065 C.ar      1 <0>        -0.1988
      5 C5          1.2084   -0.6886   -0.0017 C.ar      1 <0>         0.2457
      6 C6         -0.0059   -0.0092    0.0235 C.ar      1 <0>        -0.1321
      7 N1          1.2294   -2.0800   -0.0217 N.am      1 <0>        -0.6764
      8 C7          0.1744   -2.7630   -0.5085 C.2       1 <0>         0.7078
      9 O1         -0.7510   -2.1659   -1.0235 O.2       1 <0>        -0.5702
     10 N2          0.1454   -4.1078   -0.4246 N.am      1 <0>        -0.8558
     11 C8          3.8176   -0.4113   -0.0304 C.2       1 <0>         0.4953
     12 O2          4.2071   -1.5630   -0.0512 O.2       1 <0>        -0.4515
     13 C9          4.6662    0.7944   -0.0244 C.2       1 <0>        -0.3424
     14 C10         3.7667    1.9514    0.0030 C.2       1 <0>         0.1259
     15 N3          4.5212    3.0225    0.0086 N.2       1 <0>        -0.2380
     16 H1          6.6239    3.2326   -0.0145 H         1 <0>         0.4461
     17 N4          5.8639    2.6298   -0.0136 N.pl3     1 <0>        -0.4659
     18 C11         5.9378    1.2847   -0.0337 C.2       1 <0>         0.2018
     19 C12         7.2032    0.4667   -0.0610 C.3       1 <0>        -0.0362
     20 C13         8.0388    0.7783    1.1822 C.3       1 <0>        -0.1138
     21 C14         9.3235   -0.0522    1.1545 C.3       1 <0>        -0.1191
     22 C15        10.1276    0.2939   -0.1003 C.3       1 <0>        -0.1230
     23 C16         9.2920   -0.0176   -1.3435 C.3       1 <0>        -0.1191
     24 C17         8.0073    0.8129   -1.3158 C.3       1 <0>        -0.1141
     25 H2         -0.9767    1.8888    0.0666 H         1 <0>         0.1427
     26 H3          1.1203    3.1735    0.0531 H         1 <0>         0.1376
     27 H4         -0.9327   -0.5636    0.0278 H         1 <0>         0.1621
     28 H5          2.0033   -2.5582    0.3148 H         1 <0>         0.4181
     29 H6          0.8838   -4.5841   -0.0137 H         1 <0>         0.4021
     30 H7         -0.6139   -4.5993   -0.7750 H         1 <0>         0.4218
     31 H8          6.9503   -0.5935   -0.0725 H         1 <0>         0.1095
     32 H9          8.2917    1.8385    1.1937 H         1 <0>         0.0631
     33 H10         7.4660    0.5317    2.0762 H         1 <0>         0.0705
     34 H11         9.9188    0.1698    2.0402 H         1 <0>         0.0683
     35 H12         9.0706   -1.1124    1.1430 H         1 <0>         0.0680
     36 H13        10.3805    1.3541   -0.0888 H         1 <0>         0.0625
     37 H14        11.0428   -0.2977   -0.1201 H         1 <0>         0.0663
     38 H15         9.8648    0.2290   -2.2375 H         1 <0>         0.0683
     39 H16         9.0391   -1.0778   -1.3550 H         1 <0>         0.0680
     40 H17         7.4120    0.5909   -2.2015 H         1 <0>         0.0705
     41 H18         8.2602    1.8731   -1.3043 H         1 <0>         0.0632
@<TRIPOS>BOND
     1    1    6 ar
     2    1    2 ar
     3    1   25 1
     4    2    3 ar
     5    2   26 1
     6    3   14 1
     7    3    4 ar
     8    4    5 ar
     9    4   11 1
    10    5    6 ar
    11    5    7 1
    12    6   27 1
    13    7    8 am
    14    7   28 1
    15    8    9 2
    16    8   10 am
    17   10   29 1
    18   10   30 1
    19   11   12 2
    20   11   13 1
    21   13   14 1
    22   13   18 2
    23   14   15 2
    24   15   17 1
    25   16   17 1
    26   17   18 1
    27   18   19 1
    28   19   24 1
    29   19   20 1
    30   19   31 1
    31   20   21 1
    32   20   32 1
    33   20   33 1
    34   21   22 1
    35   21   34 1
    36   21   35 1
    37   22   23 1
    38   22   36 1
    39   22   37 1
    40   23   24 1
    41   23   38 1
    42   23   39 1
    43   24   40 1
    44   24   41 1
@<TRIPOS>MOLECULE
CHEMBL149450
   53    57     0     0     0
SMALL
USER_CHARGES

@<TRIPOS>ATOM
      1 C1          0.1367    1.3725   -0.6204 C.ar      1 <0>        -0.0640
      2 C2          1.1694    2.0953   -0.0351 C.ar      1 <0>        -0.0930
      3 C3          2.2333    1.4343    0.5595 C.ar      1 <0>         0.0164
      4 C4          2.2592    0.0268    0.5658 C.ar      1 <0>        -0.1718
      5 C5          1.2186   -0.6896   -0.0233 C.ar      1 <0>         0.1985
      6 C6          0.1561   -0.0037   -0.6176 C.ar      1 <0>        -0.1127
      7 N1          1.2385   -2.0804   -0.0209 N.am      1 <0>        -0.6412
      8 C7          0.0861   -2.7707    0.0885 C.2       1 <0>         0.5054
      9 O1         -0.9742   -2.1822    0.1027 O.2       1 <0>        -0.5057
     10 C8          0.1151   -4.2737    0.1931 C.3       1 <0>        -0.0295
     11 N2         -1.2583   -4.7836    0.3014 N.4       1 <0>        -0.3717
     12 C9         -1.8569   -4.3102    1.5552 C.3       1 <0>        -0.0196
     13 C10        -3.3139   -4.7710    1.6350 C.3       1 <0>        -0.1236
     14 C11        -3.3629   -6.3009    1.5899 C.3       1 <0>        -0.1251
     15 C12        -2.6697   -6.7867    0.3137 C.3       1 <0>        -0.1391
     16 C13        -1.2366   -6.2512    0.2828 C.3       1 <0>        -0.0039
     17 C14        -4.7985   -6.7593    1.5893 C.2       1 <0>         0.5198
     18 O2         -5.6956   -5.9437    1.6218 O.2       1 <0>        -0.5268
     19 N3         -5.0856   -8.0757    1.5528 N.am      1 <0>        -0.8498
     20 C15         3.4975   -0.3930    1.2601 C.2       1 <0>         0.4888
     21 O3          3.8630   -1.5343    1.4591 O.2       1 <0>        -0.4359
     22 C16         4.2053    0.8413    1.6656 C.2       1 <0>        -0.3176
     23 C17         3.4500    1.9293    1.2470 C.2       1 <0>         0.1498
     24 N4          4.1135    3.0425    1.6263 N.pl3     1 <0>        -0.4195
     25 H1          3.8262    3.9557    1.4702 H         1 <0>         0.4494
     26 N5          5.2863    2.6537    2.2836 N.2       1 <0>        -0.2683
     27 C18         5.3472    1.3474    2.3110 C.2       1 <0>         0.1890
     28 C19         6.4504    0.5268    2.9279 C.3       1 <0>        -0.1002
     29 C20         7.5020    1.2667    3.7572 C.3       1 <0>        -0.1602
     30 C21         7.8649    0.7164    2.3764 C.3       1 <0>        -0.1555
     31 H2         -0.6905    1.8953   -1.0775 H         1 <0>         0.1494
     32 H3          1.1433    3.1749   -0.0439 H         1 <0>         0.1427
     33 H4         -0.6522   -0.5547   -1.0752 H         1 <0>         0.1546
     34 H5          2.0818   -2.5535   -0.0980 H         1 <0>         0.4292
     35 H6          0.5885   -4.6908   -0.6958 H         1 <0>         0.1676
     36 H7          0.6818   -4.5655    1.0773 H         1 <0>         0.1675
     37 H8         -1.3007   -4.7176    2.3995 H         1 <0>         0.1295
     38 H9         -1.8184   -3.2213    1.5873 H         1 <0>         0.1514
     39 H10        -3.7561   -4.4200    2.5675 H         1 <0>         0.1207
     40 H11        -3.8712   -4.3639    0.7913 H         1 <0>         0.0996
     41 H12        -2.8495   -6.7079    2.4611 H         1 <0>         0.1180
     42 H13        -2.6515   -7.8764    0.3017 H         1 <0>         0.1201
     43 H14        -3.2136   -6.4214   -0.5574 H         1 <0>         0.0976
     44 H15        -0.7401   -6.5953   -0.6245 H         1 <0>         0.1394
     45 H16        -0.6936   -6.6172    1.1542 H         1 <0>         0.1366
     46 H17        -4.3682   -8.7280    1.5268 H         1 <0>         0.4030
     47 H18        -6.0096   -8.3707    1.5524 H         1 <0>         0.4119
     48 H19         6.1665   -0.4745    3.2520 H         1 <0>         0.1316
     49 H20         7.3959    2.3469    3.8564 H         1 <0>         0.1052
     50 H21         7.9101    0.7522    4.6272 H         1 <0>         0.1056
     51 H22         8.5117   -0.1601    2.3381 H         1 <0>         0.1070
     52 H23         7.9975    1.4346    1.5674 H         1 <0>         0.0983
     53 H24        -1.8036   -4.4464   -0.4777 H         1 <0>         0.4311
@<TRIPOS>BOND
     1    1    6 ar
     2    1    2 ar
     3    1   31 1
     4    2    3 ar
     5    2   32 1
     6    3   23 1
     7    3    4 ar
     8    4    5 ar
     9    4   20 1
    10    5    6 ar
    11    5    7 1
    12    6   33 1
    13    7    8 am
    14    7   34 1
    15    8    9 2
    16    8   10 1
    17   10   11 1
    18   10   35 1
    19   10   36 1
    20   11   16 1
    21   11   12 1
    22   11   53 1
    23   12   13 1
    24   12   37 1
    25   12   38 1
    26   13   14 1
    27   13   39 1
    28   13   40 1
    29   14   15 1
    30   14   17 1
    31   14   41 1
    32   15   16 1
    33   15   42 1
    34   15   43 1
    35   16   44 1
    36   16   45 1
    37   17   18 2
    38   17   19 am
    39   19   46 1
    40   19   47 1
    41   20   21 2
    42   20   22 1
    43   22   27 1
    44   22   23 2
    45   23   24 1
    46   24   25 1
    47   24   26 1
    48   26   27 2
    49   27   28 1
    50   28   30 1
    51   28   29 1
    52   28   48 1
    53   29   30 1
    54   29   49 1
    55   29   50 1
    56   30   51 1
    57   30   52 1
@<TRIPOS>MOLECULE
CHEMBL149450
   53    57     0     0     0
SMALL
USER_CHARGES

@<TRIPOS>ATOM
      1 C1          0.1373    1.3751   -0.6216 C.ar      1 <0>        -0.0630
      2 C2          1.1664    2.0947   -0.0358 C.ar      1 <0>        -0.0903
      3 C3          2.2305    1.4335    0.5631 C.ar      1 <0>         0.0473
      4 C4          2.2587    0.0276    0.5721 C.ar      1 <0>        -0.1722
      5 C5          1.2128   -0.6883   -0.0238 C.ar      1 <0>         0.1934
      6 C6          0.1565   -0.0040   -0.6176 C.ar      1 <0>        -0.1161
      7 N1          1.2293   -2.0801   -0.0213 N.am      1 <0>        -0.6401
      8 C7          0.0752   -2.7676    0.0873 C.2       1 <0>         0.5042
      9 O1         -0.9838   -2.1765    0.1004 O.2       1 <0>        -0.5064
     10 C8          0.1005   -4.2707    0.1925 C.3       1 <0>        -0.0293
     11 N2         -1.2742   -4.7773    0.2998 N.4       1 <0>        -0.3716
     12 C9         -1.8729   -4.3019    1.5529 C.3       1 <0>        -0.0194
     13 C10        -3.3310   -4.7592    1.6317 C.3       1 <0>        -0.1236
     14 C11        -3.3837   -6.2890    1.5871 C.3       1 <0>        -0.1250
     15 C12        -2.6905   -6.7769    0.3116 C.3       1 <0>        -0.1391
     16 C13        -1.2561   -6.2449    0.2818 C.3       1 <0>        -0.0038
     17 C14        -4.8203   -6.7440    1.5854 C.2       1 <0>         0.5198
     18 O2         -5.7154   -5.9262    1.6167 O.2       1 <0>        -0.5266
     19 N3         -5.1105   -8.0596    1.5490 N.am      1 <0>        -0.8500
     20 C15         3.4840   -0.4217    1.2633 C.2       1 <0>         0.4973
     21 O3          3.8217   -1.5750    1.4483 O.2       1 <0>        -0.4497
     22 C16         4.2242    0.7806    1.6880 C.2       1 <0>        -0.3458
     23 C17         3.4427    1.9414    1.2515 C.2       1 <0>         0.1180
     24 N4          4.1009    3.0095    1.6287 N.2       1 <0>        -0.2249
     25 H1          5.9317    3.2112    2.6648 H         1 <0>         0.4496
     26 N5          5.2692    2.6114    2.2876 N.pl3     1 <0>        -0.4636
     27 C18         5.3318    1.2659    2.3167 C.2       1 <0>         0.2354
     28 C19         6.4320    0.4428    2.9356 C.3       1 <0>        -0.1186
     29 C20         7.4834    1.1801    3.7673 C.3       1 <0>        -0.1686
     30 C21         7.8480    0.6297    2.3871 C.3       1 <0>        -0.1536
     31 H2         -0.6884    1.8981   -1.0811 H         1 <0>         0.1486
     32 H3          1.1409    3.1744   -0.0452 H         1 <0>         0.1455
     33 H4         -0.6509   -0.5548   -1.0771 H         1 <0>         0.1532
     34 H5          2.0715   -2.5553   -0.0978 H         1 <0>         0.4283
     35 H6          0.5736   -4.6892   -0.6958 H         1 <0>         0.1668
     36 H7          0.6657   -4.5635    1.0774 H         1 <0>         0.1667
     37 H8         -1.3184   -4.7103    2.3978 H         1 <0>         0.1290
     38 H9         -1.8318   -3.2132    1.5846 H         1 <0>         0.1519
     39 H10        -3.7732   -4.4068    2.5636 H         1 <0>         0.1206
     40 H11        -3.8865   -4.3511    0.7873 H         1 <0>         0.0997
     41 H12        -2.8720   -6.6969    2.4588 H         1 <0>         0.1177
     42 H13        -2.6748   -7.8667    0.3000 H         1 <0>         0.1197
     43 H14        -3.2328   -6.4107   -0.5602 H         1 <0>         0.0977
     44 H15        -0.7597   -6.5905   -0.6250 H         1 <0>         0.1391
     45 H16        -0.7147   -6.6118    1.1538 H         1 <0>         0.1362
     46 H17        -4.3947   -8.7137    1.5239 H         1 <0>         0.4029
     47 H18        -6.0353   -8.3525    1.5479 H         1 <0>         0.4118
     48 H19         6.1455   -0.5581    3.2586 H         1 <0>         0.1420
     49 H20         7.3793    2.2605    3.8669 H         1 <0>         0.0963
     50 H21         7.8887    0.6644    4.6379 H         1 <0>         0.1156
     51 H22         8.4932   -0.2481    2.3496 H         1 <0>         0.1148
     52 H23         7.9838    1.3481    1.5786 H         1 <0>         0.1011
     53 H24        -1.8181   -4.4390   -0.4799 H         1 <0>         0.4312
@<TRIPOS>BOND
     1    1    6 ar
     2    1    2 ar
     3    1   31 1
     4    2    3 ar
     5    2   32 1
     6    3   23 1
     7    3    4 ar
     8    4    5 ar
     9    4   20 1
    10    5    6 ar
    11    5    7 1
    12    6   33 1
    13    7    8 am
    14    7   34 1
    15    8    9 2
    16    8   10 1
    17   10   11 1
    18   10   35 1
    19   10   36 1
    20   11   16 1
    21   11   12 1
    22   11   53 1
    23   12   13 1
    24   12   37 1
    25   12   38 1
    26   13   14 1
    27   13   39 1
    28   13   40 1
    29   14   15 1
    30   14   17 1
    31   14   41 1
    32   15   16 1
    33   15   42 1
    34   15   43 1
    35   16   44 1
    36   16   45 1
    37   17   18 2
    38   17   19 am
    39   19   46 1
    40   19   47 1
    41   20   21 2
    42   20   22 1
    43   22   23 1
    44   22   27 2
    45   23   24 2
    46   24   26 1
    47   25   26 1
    48   26   27 1
    49   27   28 1
    50   28   30 1
    51   28   29 1
    52   28   48 1
    53   29   30 1
    54   29   49 1
    55   29   50 1
    56   30   51 1
    57   30   52 1
@<TRIPOS>MOLECULE
CHEMBL254269
   52    54     0     0     0
SMALL
USER_CHARGES

@<TRIPOS>ATOM
      1 C1          0.1102    1.4504   -0.0154 C.3       1 <0>        -0.1211
      2 C2          0.0755   -0.0561    0.0022 C.ar      1 <0>         0.0000
      3 C3         -0.0228   -0.7580   -1.1825 C.ar      1 <0>        -0.1302
      4 C4         -0.0555   -2.1393   -1.1722 C.ar      1 <0>        -0.0234
      5 C5          0.0105   -2.8321    0.0323 C.ar      1 <0>        -0.1682
      6 C6          0.1100   -2.1357    1.2280 C.ar      1 <0>        -0.0215
      7 C7          0.1486   -0.7417    1.2161 C.ar      1 <0>        -0.1550
      8 C8          0.2606    0.0080    2.4857 C.2       1 <0>         0.5759
      9 O1          1.1306    0.8458    2.6221 O.2       1 <0>        -0.5159
     10 N1         -0.6021   -0.2376    3.4917 N.am      1 <0>        -0.6127
     11 C9         -1.7293   -1.1500    3.2837 C.3       1 <0>         0.0665
     12 C10        -0.4127    0.4078    4.7931 C.3       1 <0>         0.0918
     13 C11        -1.1641    1.7404    4.8157 C.3       1 <0>        -0.0321
     14 N2         -0.9741    2.3876    6.1207 N.4       1 <0>        -0.5052
     15 C12        -1.6955    3.6670    6.1425 C.3       1 <0>        -0.0459
     16 S1         -0.0327   -4.5936    0.0393 S.3       1 <0>         0.1094
     17 C13         1.6657   -5.0615    0.0707 C.2       1 <0>        -0.2517
     18 C14         2.2280   -6.2988   -0.0102 C.2       1 <0>         0.0981
     19 N3          3.5422   -6.4228    0.0338 N.2       1 <0>        -0.4901
     20 C15         4.3269   -5.3675    0.1550 C.2       1 <0>         0.3566
     21 S2          3.1284   -4.0422    0.2096 S.3       1 <0>         0.0099
     22 N4          5.7141   -5.3038    0.2184 N.pl3     1 <0>        -0.5965
     23 C16         6.4718   -6.4574    0.0454 C.ar      1 <0>         0.3782
     24 C17         7.8516   -6.4076    0.2159 C.ar      1 <0>        -0.1935
     25 C18         8.5935   -7.5621    0.0414 C.ar      1 <0>        -0.0333
     26 C19         7.9284   -8.7323   -0.2991 C.ar      1 <0>        -0.1699
     27 C20         6.5554   -8.7101   -0.4525 C.ar      1 <0>         0.1623
     28 N5          5.8726   -7.5942   -0.2746 N.ar      1 <0>        -0.4587
     29 Br1         5.6420  -10.2996   -0.9161 Br        1 <0>         0.0047
     30 H1          1.1458    1.7901   -0.0027 H         1 <0>         0.0884
     31 H2         -0.3806    1.8146   -0.9179 H         1 <0>         0.0778
     32 H3         -0.4095    1.8360    0.8617 H         1 <0>         0.0627
     33 H4         -0.0748   -0.2255   -2.1207 H         1 <0>         0.1431
     34 H5         -0.1329   -2.6828   -2.1023 H         1 <0>         0.1447
     35 H6          0.1614   -2.6713    2.1644 H         1 <0>         0.1376
     36 H7         -1.4528   -2.1506    3.6158 H         1 <0>         0.0722
     37 H8         -2.5890   -0.8017    3.8561 H         1 <0>         0.0772
     38 H9         -1.9847   -1.1764    2.2243 H         1 <0>         0.0877
     39 H10        -0.7987   -0.2404    5.5798 H         1 <0>         0.1045
     40 H11         0.6497    0.5869    4.9586 H         1 <0>         0.1064
     41 H12        -0.7780    2.3886    4.0291 H         1 <0>         0.1353
     42 H13        -2.2264    1.5613    4.6502 H         1 <0>         0.1337
     43 H14        -1.3315    1.7875    6.8489 H         1 <0>         0.4308
     44 H15        -1.3094    4.3152    5.3558 H         1 <0>         0.1240
     45 H16        -2.7579    3.4880    5.9769 H         1 <0>         0.1238
     46 H17        -1.5546    4.1472    7.1108 H         1 <0>         0.1292
     47 H18         1.6030   -7.1740   -0.1093 H         1 <0>         0.1728
     48 H19         6.1536   -4.4550    0.3832 H         1 <0>         0.4387
     49 H20         8.3372   -5.4799    0.4806 H         1 <0>         0.1450
     50 H21         9.6662   -7.5532    0.1668 H         1 <0>         0.1529
     51 H22         8.4787   -9.6504   -0.4428 H         1 <0>         0.1499
     52 H23         0.0093    2.5533    6.2740 H         1 <0>         0.4333
@<TRIPOS>BOND
     1    1    2 1
     2    1   30 1
     3    1   31 1
     4    1   32 1
     5    2    7 ar
     6    2    3 ar
     7    3    4 ar
     8    3   33 1
     9    4    5 ar
    10    4   34 1
    11    5    6 ar
    12    5   16 1
    13    6    7 ar
    14    6   35 1
    15    7    8 1
    16    8    9 2
    17    8   10 am
    18   10   11 1
    19   10   12 1
    20   11   36 1
    21   11   37 1
    22   11   38 1
    23   12   13 1
    24   12   39 1
    25   12   40 1
    26   13   14 1
    27   13   41 1
    28   13   42 1
    29   14   15 1
    30   14   43 1
    31   14   52 1
    32   15   44 1
    33   15   45 1
    34   15   46 1
    35   16   17 1
    36   17   21 1
    37   17   18 2
    38   18   19 1
    39   18   47 1
    40   19   20 2
    41   20   21 1
    42   20   22 1
    43   22   23 1
    44   22   48 1
    45   23   28 ar
    46   23   24 ar
    47   24   25 ar
    48   24   49 1
    49   25   26 ar
    50   25   50 1
    51   26   27 ar
    52   26   51 1
    53   27   28 ar
    54   27   29 1
@<TRIPOS>MOLECULE
CHEMBL74680
   35    38     0     0     0
SMALL
USER_CHARGES

@<TRIPOS>ATOM
      1 C1          0.0881    1.2965   -1.2004 C.ar      1 <0>        -0.1188
      2 C2          1.2609    2.0271   -1.0741 C.ar      1 <0>        -0.1018
      3 C3          2.4505    1.3938   -0.7816 C.ar      1 <0>        -0.0904
      4 C4          2.4725    0.0168   -0.6124 C.ar      1 <0>         0.0554
      5 C5          1.2849   -0.7227   -0.7399 C.ar      1 <0>         0.0431
      6 C6          0.0913   -0.0600   -1.0372 C.ar      1 <0>        -0.0645
      7 N1          1.6035   -2.0259   -0.5260 N.2       1 <0>        -0.4683
      8 C7          2.8763   -2.1326   -0.2817 C.2       1 <0>         0.2741
      9 N2          3.4649   -0.9024   -0.3219 N.pl3     1 <0>        -0.4406
     10 C8          4.8137   -0.6237   -0.1099 C.ar      1 <0>         0.4500
     11 C9          5.7129   -1.6525    0.1708 C.ar      1 <0>        -0.2953
     12 C10         7.0417   -1.3298    0.3741 C.ar      1 <0>         0.2208
     13 N3          7.4194   -0.0628    0.2970 N.ar      1 <0>        -0.5630
     14 C11         6.5427    0.8935    0.0287 C.ar      1 <0>         0.5954
     15 N4          5.2622    0.6243   -0.1777 N.ar      1 <0>        -0.5835
     16 N5          6.9768    2.2070   -0.0430 N.pl3     1 <0>        -0.6349
     17 C12         8.3410    2.4986    0.0510 C.ar      1 <0>         0.1752
     18 C13         9.2733    1.6725   -0.5642 C.ar      1 <0>        -0.1039
     19 C14        10.6201    1.9626   -0.4697 C.ar      1 <0>        -0.0865
     20 C15        11.0419    3.0741    0.2367 C.ar      1 <0>        -0.1223
     21 C16        10.1163    3.8993    0.8509 C.ar      1 <0>        -0.0150
     22 C17         8.7663    3.6175    0.7547 C.ar      1 <0>        -0.1359
     23 Cl1        10.6504    5.2935    1.7368 Cl        1 <0>        -0.0632
     24 H1         -0.8373    1.8057   -1.4256 H         1 <0>         0.1339
     25 H2          1.2421    3.0988   -1.2061 H         1 <0>         0.1338
     26 H3          3.3607    1.9669   -0.6849 H         1 <0>         0.1379
     27 H4         -0.8273   -0.6191   -1.1374 H         1 <0>         0.1340
     28 H5          3.3918   -3.0591   -0.0765 H         1 <0>         0.2242
     29 H6          5.3786   -2.6778    0.2283 H         1 <0>         0.1555
     30 H7          7.7637   -2.1023    0.5937 H         1 <0>         0.1838
     31 H8          6.3344    2.9245   -0.1585 H         1 <0>         0.4265
     32 H9          8.9450    0.8038   -1.1156 H         1 <0>         0.1344
     33 H10        11.3449    1.3205   -0.9479 H         1 <0>         0.1374
     34 H11        12.0959    3.2983    0.3096 H         1 <0>         0.1361
     35 H12         8.0437    4.2643    1.2300 H         1 <0>         0.1364
@<TRIPOS>BOND
     1    1    6 ar
     2    1    2 ar
     3    1   24 1
     4    2    3 ar
     5    2   25 1
     6    3    4 ar
     7    3   26 1
     8    4    9 1
     9    4    5 ar
    10    5    6 ar
    11    5    7 1
    12    6   27 1
    13    7    8 2
    14    8    9 1
    15    8   28 1
    16    9   10 1
    17   10   15 ar
    18   10   11 ar
    19   11   12 ar
    20   11   29 1
    21   12   13 ar
    22   12   30 1
    23   13   14 ar
    24   14   15 ar
    25   14   16 1
    26   16   17 1
    27   16   31 1
    28   17   22 ar
    29   17   18 ar
    30   18   19 ar
    31   18   32 1
    32   19   20 ar
    33   19   33 1
    34   20   21 ar
    35   20   34 1
    36   21   22 ar
    37   21   23 1
    38   22   35 1
@<TRIPOS>MOLECULE
CHEMBL315837
   49    51     0     0     0
SMALL
USER_CHARGES

@<TRIPOS>ATOM
      1 C1         -0.0187    1.5258    0.0104 C.3       1 <0>        -0.1628
      2 C2          0.0021   -0.0041    0.0020 C.3       1 <0>         0.1342
      3 C3          0.7421   -0.5109    1.2415 C.3       1 <0>        -0.1626
      4 N1         -1.3723   -0.5112    0.0124 N.pl3     1 <0>        -0.4702
      5 C4         -2.3128   -0.2749    0.9723 C.2       1 <0>         0.2327
      6 N2         -3.4234   -0.8781    0.6638 N.2       1 <0>        -0.4549
      7 C5         -3.2674   -1.5381   -0.5102 C.ar      1 <0>        -0.1558
      8 C6         -1.9517   -1.3058   -0.9441 C.ar      1 <0>         0.3473
      9 N3         -1.5421   -1.8450   -2.0880 N.ar      1 <0>        -0.6166
     10 C7         -2.3616   -2.5894   -2.8127 C.ar      1 <0>         0.6289
     11 N4         -3.6124   -2.8321   -2.4423 N.ar      1 <0>        -0.6215
     12 C8         -4.1011   -2.3388   -1.3098 C.ar      1 <0>         0.5417
     13 N5         -5.4072   -2.5960   -0.9325 N.pl3     1 <0>        -0.6870
     14 C9         -6.2626   -3.4328   -1.7777 C.3       1 <0>         0.1477
     15 C10        -6.9696   -2.5639   -2.8383 C.3       1 <0>        -0.1324
     16 C11        -8.3798   -3.1920   -2.9652 C.3       1 <0>        -0.1248
     17 C12        -8.7134   -3.5811   -1.5036 C.3       1 <0>        -0.1246
     18 C13        -7.3713   -4.0796   -0.9291 C.3       1 <0>        -0.1339
     19 N6         -1.8979   -3.1336   -3.9991 N.pl3     1 <0>        -0.6972
     20 C14        -2.7840   -3.9617   -4.8209 C.3       1 <0>         0.1458
     21 C15        -2.0311   -4.4336   -6.0664 C.3       1 <0>        -0.1360
     22 C16        -2.9566   -5.2984   -6.9246 C.3       1 <0>         0.0811
     23 O1         -2.2534   -5.7392   -8.0879 O.3       1 <0>        -0.5751
     24 H1          1.0039    1.9031    0.0027 H         1 <0>         0.0795
     25 H2         -0.5459    1.8868   -0.8726 H         1 <0>         0.0629
     26 H3         -0.5289    1.8773    0.9072 H         1 <0>         0.0656
     27 H4          0.5123   -0.3556   -0.8948 H         1 <0>         0.1061
     28 H5          0.2319   -0.1594    2.1383 H         1 <0>         0.0656
     29 H6          0.7568   -1.6008    1.2356 H         1 <0>         0.0630
     30 H7          1.7647   -0.1336    1.2338 H         1 <0>         0.0795
     31 H8         -2.1580    0.3239    1.8577 H         1 <0>         0.2143
     32 H9         -5.7566   -2.2223   -0.1084 H         1 <0>         0.4169
     33 H10        -5.6660   -4.2049   -2.2638 H         1 <0>         0.0955
     34 H11        -7.0414   -1.5306   -2.4989 H         1 <0>         0.0678
     35 H12        -6.4409   -2.6180   -3.7900 H         1 <0>         0.0710
     36 H13        -9.0953   -2.4618   -3.3434 H         1 <0>         0.0680
     37 H14        -8.3534   -4.0750   -3.6037 H         1 <0>         0.0694
     38 H15        -9.0667   -2.7121   -0.9486 H         1 <0>         0.0669
     39 H16        -9.4573   -4.3776   -1.4812 H         1 <0>         0.0685
     40 H17        -7.3133   -5.1655   -1.0039 H         1 <0>         0.0757
     41 H18        -7.2730   -3.7709    0.1116 H         1 <0>         0.0713
     42 H19        -0.9864   -2.9665   -4.2858 H         1 <0>         0.4142
     43 H20        -3.1109   -4.8270   -4.2442 H         1 <0>         0.0681
     44 H21        -3.6529   -3.3762   -5.1216 H         1 <0>         0.0685
     45 H22        -1.7043   -3.5683   -6.6430 H         1 <0>         0.0773
     46 H23        -1.1623   -5.0191   -5.7657 H         1 <0>         0.0773
     47 H24        -3.2835   -6.1637   -6.3480 H         1 <0>         0.0498
     48 H25        -3.8255   -4.7129   -7.2254 H         1 <0>         0.0499
     49 H26        -2.7804   -6.2937   -8.6795 H         1 <0>         0.3837
@<TRIPOS>BOND
     1    1    2 1
     2    1   24 1
     3    1   25 1
     4    1   26 1
     5    2    3 1
     6    2    4 1
     7    2   27 1
     8    3   28 1
     9    3   29 1
    10    3   30 1
    11    4    8 1
    12    4    5 1
    13    5    6 2
    14    5   31 1
    15    6    7 1
    16    7   12 ar
    17    7    8 ar
    18    8    9 ar
    19    9   10 ar
    20   10   11 ar
    21   10   19 1
    22   11   12 ar
    23   12   13 1
    24   13   14 1
    25   13   32 1
    26   14   18 1
    27   14   15 1
    28   14   33 1
    29   15   16 1
    30   15   34 1
    31   15   35 1
    32   16   17 1
    33   16   36 1
    34   16   37 1
    35   17   18 1
    36   17   38 1
    37   17   39 1
    38   18   40 1
    39   18   41 1
    40   19   20 1
    41   19   42 1
    42   20   21 1
    43   20   43 1
    44   20   44 1
    45   21   22 1
    46   21   45 1
    47   21   46 1
    48   22   23 1
    49   22   47 1
    50   22   48 1
    51   23   49 1
@<TRIPOS>MOLECULE
CHEMBL364213
   39    42     0     0     0
SMALL
USER_CHARGES

@<TRIPOS>ATOM
      1 C1          0.1543    1.3800    0.6434 C.ar      1 <0>        -0.0924
      2 C2          1.1480    2.1080    0.0615 C.ar      1 <0>        -0.1049
      3 C3          2.2113    1.4515   -0.5774 C.ar      1 <0>        -0.0949
      4 C4          3.2598    2.1564   -1.1914 C.ar      1 <0>         0.1519
      5 N1          4.2340    1.5005   -1.7770 N.ar      1 <0>        -0.4873
      6 C5          4.2825    0.1762   -1.8211 C.ar      1 <0>         0.0803
      7 C6          3.3142   -0.5979   -1.2559 C.ar      1 <0>        -0.1605
      8 C7          2.2379    0.0333   -0.6095 C.ar      1 <0>        -0.0370
      9 C8          1.1977   -0.6939    0.0001 C.ar      1 <0>         0.1628
     10 C9          0.1707   -0.0113    0.6178 C.ar      1 <0>        -0.1110
     11 N2          1.2056   -2.0901   -0.0210 N.am      1 <0>        -0.6710
     12 C10         0.0483   -2.7722    0.0882 C.2       1 <0>         0.7000
     13 O1         -1.0105   -2.1748    0.1020 O.2       1 <0>        -0.5024
     14 N3          0.0647   -4.1166    0.1820 N.am      1 <0>        -0.6263
     15 C11        -1.1287   -4.8201    0.2945 C.2       1 <0>         0.2760
     16 N4         -2.3564   -4.3483    0.3203 N.2       1 <0>        -0.5132
     17 C12        -3.3954   -5.1555    0.4322 C.2       1 <0>         0.0609
     18 C13        -3.1374   -6.4833    0.5186 C.2       1 <0>        -0.1932
     19 S1         -1.3545   -6.4829    0.4235 S.3       1 <0>         0.1216
     20 C14        -4.0925   -7.6413    0.6526 C.3       1 <0>        -0.0212
     21 C15        -3.5774   -8.7614    1.5719 C.3       1 <0>        -0.1349
     22 C16        -4.1642   -9.7566    0.5569 C.3       1 <0>        -0.1424
     23 C17        -3.9994   -8.6533   -0.5016 C.3       1 <0>        -0.1335
     24 H1         -0.6585    1.8918    1.1372 H         1 <0>         0.1333
     25 H2          1.1175    3.1871    0.0915 H         1 <0>         0.1368
     26 H3          3.2640    3.2364   -1.1819 H         1 <0>         0.1675
     27 H4          5.1127   -0.3023   -2.3192 H         1 <0>         0.1545
     28 H5          3.3728   -1.6752   -1.3035 H         1 <0>         0.1308
     29 H6         -0.6302   -0.5631    1.0875 H         1 <0>         0.1530
     30 H7          2.0439   -2.5691   -0.1141 H         1 <0>         0.4091
     31 H8          0.9095   -4.5933    0.1709 H         1 <0>         0.4236
     32 H9         -4.4057   -4.7746    0.4543 H         1 <0>         0.1752
     33 H10        -5.1117   -7.3257    0.8755 H         1 <0>         0.1169
     34 H11        -2.4906   -8.8015    1.6445 H         1 <0>         0.0816
     35 H12        -4.0690   -8.7887    2.5444 H         1 <0>         0.0755
     36 H13        -3.5312  -10.6268    0.3827 H         1 <0>         0.0722
     37 H14        -5.2031  -10.0204    0.7546 H         1 <0>         0.0854
     38 H15        -4.8317   -8.5933   -1.2030 H         1 <0>         0.0749
     39 H16        -3.0280   -8.6638   -0.9958 H         1 <0>         0.0823
@<TRIPOS>BOND
     1    1   10 ar
     2    1    2 ar
     3    1   24 1
     4    2    3 ar
     5    2   25 1
     6    3    8 ar
     7    3    4 ar
     8    4    5 ar
     9    4   26 1
    10    5    6 ar
    11    6    7 ar
    12    6   27 1
    13    7    8 ar
    14    7   28 1
    15    8    9 ar
    16    9   10 ar
    17    9   11 1
    18   10   29 1
    19   11   12 am
    20   11   30 1
    21   12   13 2
    22   12   14 am
    23   14   15 1
    24   14   31 1
    25   15   19 1
    26   15   16 2
    27   16   17 1
    28   17   18 2
    29   17   32 1
    30   18   19 1
    31   18   20 1
    32   20   23 1
    33   20   21 1
    34   20   33 1
    35   21   22 1
    36   21   34 1
    37   21   35 1
    38   22   23 1
    39   22   36 1
    40   22   37 1
    41   23   38 1
    42   23   39 1
@<TRIPOS>MOLECULE
CHEMBL446409
   41    44     0     0     0
SMALL
USER_CHARGES

@<TRIPOS>ATOM
      1 C1          2.1376   -5.0181   -2.0056 C.ar      1 <0>        -0.0916
      2 C2          2.4541   -3.7888   -2.5572 C.ar      1 <0>        -0.1056
      3 C3          3.3589   -2.9492   -1.9174 C.ar      1 <0>         0.0343
      4 C4          3.9460   -3.3593   -0.7109 C.ar      1 <0>        -0.0379
      5 C5          3.6192   -4.6068   -0.1596 C.ar      1 <0>         0.1043
      6 C6          2.7110   -5.4281   -0.8194 C.ar      1 <0>        -0.1126
      7 N1          4.3351   -4.7516    1.0156 N.pl3     1 <0>        -0.5792
      8 H1          4.2940   -5.5272    1.5967 H         1 <0>         0.4229
      9 C7          5.1050   -3.6532    1.2409 C.2       1 <0>         0.3020
     10 C8          4.9168   -2.7440    0.2104 C.2       1 <0>        -0.1184
     11 N2          5.5054   -1.5369    0.0784 N.2       1 <0>        -0.0181
     12 N3          5.4848   -0.6986    1.0586 N.2       1 <0>        -0.1835
     13 C9          4.8646   -1.0324    2.2310 C.ar      1 <0>         0.0793
     14 C10         5.6002   -1.1128    3.4161 C.ar      1 <0>        -0.0919
     15 C11         4.9680   -1.4500    4.5946 C.ar      1 <0>        -0.0107
     16 C12         3.6086   -1.7088    4.6051 C.ar      1 <0>        -0.6771
     17 C13         2.8737   -1.6311    3.4351 C.ar      1 <0>        -0.0088
     18 C14         3.4913   -1.2890    2.2503 C.ar      1 <0>        -0.1348
     19 S1          2.8098   -2.1400    6.1152 S.o2      1 <0>         2.7015
     20 O1          1.6398   -2.8655    5.7630 O.2       1 <0>        -0.9644
     21 O2          3.8127   -2.6781    6.9660 O.2       1 <0>        -0.9611
     22 N4          2.2988   -0.7306    6.8186 N.pl3     1 <0>        -1.2480
     23 O3          5.9246   -3.4757    2.3020 O.3       1 <0>        -0.4511
     24 C15         3.7009   -1.6318   -2.5052 C.2       1 <0>         0.0922
     25 C16         3.1828   -1.0982   -3.7021 C.2       1 <0>        -0.2573
     26 C17         3.7414    0.1171   -3.8894 C.2       1 <0>         0.0540
     27 N5          4.5812    0.3537   -2.8586 N.pl3     1 <0>        -0.4712
     28 H2          5.1178    1.1520   -2.7334 H         1 <0>         0.4411
     29 N6          4.5383   -0.7510   -1.9984 N.2       1 <0>        -0.2334
     30 H3          1.4303   -5.6619   -2.5071 H         1 <0>         0.1383
     31 H4          1.9976   -3.4813   -3.4864 H         1 <0>         0.1366
     32 H5          2.4534   -6.3902   -0.4016 H         1 <0>         0.1303
     33 H6          6.6613   -0.9118    3.4093 H         1 <0>         0.1377
     34 H7          5.5353   -1.5126    5.5115 H         1 <0>         0.1454
     35 H8          1.8132   -1.8347    3.4506 H         1 <0>         0.1415
     36 H9          2.9156   -1.2240    1.3388 H         1 <0>         0.1282
     37 H10         1.5070   -0.7274    7.3788 H         1 <0>         0.4219
     38 H11         2.7914    0.0918    6.6704 H         1 <0>         0.4179
     39 H12         6.8030   -3.8643    2.1899 H         1 <0>         0.4017
     40 H13         2.4663   -1.5761   -4.3537 H         1 <0>         0.1488
     41 H14         3.5506    0.7826   -4.7183 H         1 <0>         0.1767
@<TRIPOS>BOND
     1    1    6 ar
     2    1    2 ar
     3    1   30 1
     4    2    3 ar
     5    2   31 1
     6    3    4 ar
     7    3   24 1
     8    4   10 1
     9    4    5 ar
    10    5    6 ar
    11    5    7 1
    12    6   32 1
    13    7    8 1
    14    7    9 1
    15    9   10 2
    16    9   23 1
    17   10   11 1
    18   11   12 2
    19   12   13 1
    20   13   18 ar
    21   13   14 ar
    22   14   15 ar
    23   14   33 1
    24   15   16 ar
    25   15   34 1
    26   16   17 ar
    27   16   19 1
    28   17   18 ar
    29   17   35 1
    30   18   36 1
    31   19   20 2
    32   19   21 2
    33   19   22 1
    34   22   37 1
    35   22   38 1
    36   23   39 1
    37   24   29 2
    38   24   25 1
    39   25   26 2
    40   25   40 1
    41   26   27 1
    42   26   41 1
    43   27   28 1
    44   27   29 1
@<TRIPOS>MOLECULE
CHEMBL446409
   41    44     0     0     0
SMALL
USER_CHARGES

@<TRIPOS>ATOM
      1 C1          2.6130    4.2189   -1.4000 C.ar      1 <0>        -0.0900
      2 C2          3.9330    3.8729   -1.6270 C.ar      1 <0>        -0.0940
      3 C3          4.4147    2.6384   -1.1993 C.ar      1 <0>         0.0023
      4 C4          3.5489    1.7521   -0.5376 C.ar      1 <0>        -0.0673
      5 C5          2.2126    2.1132   -0.3129 C.ar      1 <0>         0.1125
      6 C6          1.7572    3.3525   -0.7504 C.ar      1 <0>        -0.1063
      7 N1          1.5961    1.0662    0.3494 N.pl3     1 <0>        -0.5783
      8 H1          0.6664    1.0569    0.6257 H         1 <0>         0.4259
      9 C7          2.4777    0.0519    0.5583 C.2       1 <0>         0.3150
     10 C8          3.7130    0.4050    0.0344 C.2       1 <0>        -0.1278
     11 N2          4.8396   -0.3377    0.0462 N.2       1 <0>        -0.0951
     12 N3          5.4273   -0.6357   -1.0628 N.2       1 <0>        -0.1321
     13 C9          4.7472   -0.5370   -2.2453 C.ar      1 <0>         0.0597
     14 C10         5.4332   -0.2475   -3.4275 C.ar      1 <0>        -0.0741
     15 C11         4.7407   -0.1495   -4.6163 C.ar      1 <0>        -0.0138
     16 C12         3.3698   -0.3366   -4.6398 C.ar      1 <0>        -0.6590
     17 C13         2.6837   -0.6231   -3.4726 C.ar      1 <0>        -0.0153
     18 C14         3.3639   -0.7308   -2.2776 C.ar      1 <0>        -0.1324
     19 S1          2.4935   -0.2088   -6.1630 S.o2      1 <0>         2.7002
     20 O1          1.1494    0.1133   -5.8326 O.2       1 <0>        -0.9610
     21 O2          3.2835    0.6051   -7.0190 O.2       1 <0>        -0.9567
     22 N4          2.4654   -1.7198   -6.8400 N.pl3     1 <0>        -1.2493
     23 O3          2.1952   -1.1159    1.1789 O.3       1 <0>        -0.4458
     24 C15         5.8237    2.2640   -1.4398 C.2       1 <0>         0.1059
     25 C16         6.5535    2.5146   -2.5807 C.2       1 <0>        -0.2448
     26 C17         7.8334    1.9950   -2.3874 C.2       1 <0>         0.0389
     27 N5          7.8910    1.4551   -1.1967 N.2       1 <0>        -0.2653
     28 H2          6.4138    1.3066    0.3196 H         1 <0>         0.4404
     29 N6          6.6477    1.6107   -0.5714 N.pl3     1 <0>        -0.4560
     30 H3          2.2489    5.1802   -1.7312 H         1 <0>         0.1418
     31 H4          4.5908    4.5612   -2.1370 H         1 <0>         0.1394
     32 H5          0.7295    3.6382   -0.5809 H         1 <0>         0.1340
     33 H6          6.5030   -0.1005   -3.4105 H         1 <0>         0.1469
     34 H7          5.2696    0.0742   -5.5309 H         1 <0>         0.1537
     35 H8          1.6137   -0.7672   -3.4983 H         1 <0>         0.1451
     36 H9          2.8279   -0.9596   -1.3684 H         1 <0>         0.1257
     37 H10         2.8901   -2.4634   -6.3843 H         1 <0>         0.4175
     38 H11         2.0242   -1.8614   -7.6922 H         1 <0>         0.4227
     39 H12         1.8086   -1.7861    0.5989 H         1 <0>         0.4011
     40 H13         6.1984    3.0215   -3.4658 H         1 <0>         0.1498
     41 H14         8.6424    2.0317   -3.1020 H         1 <0>         0.1858
@<TRIPOS>BOND
     1    1    6 ar
     2    1    2 ar
     3    1   30 1
     4    2    3 ar
     5    2   31 1
     6    3    4 ar
     7    3   24 1
     8    4   10 1
     9    4    5 ar
    10    5    6 ar
    11    5    7 1
    12    6   32 1
    13    7    8 1
    14    7    9 1
    15    9   10 2
    16    9   23 1
    17   10   11 1
    18   11   12 2
    19   12   13 1
    20   13   18 ar
    21   13   14 ar
    22   14   15 ar
    23   14   33 1
    24   15   16 ar
    25   15   34 1
    26   16   17 ar
    27   16   19 1
    28   17   18 ar
    29   17   35 1
    30   18   36 1
    31   19   20 2
    32   19   21 2
    33   19   22 1
    34   22   37 1
    35   22   38 1
    36   23   39 1
    37   24   25 2
    38   24   29 1
    39   25   26 1
    40   25   40 1
    41   26   27 2
    42   26   41 1
    43   27   29 1
    44   28   29 1
@<TRIPOS>MOLECULE
CHEMBL446409
   41    44     0     0     0
SMALL
USER_CHARGES

@<TRIPOS>ATOM
      1 C1         -0.0166    1.3756    0.0096 C.ar      1 <0>        -0.0941
      2 C2          1.1628    2.0998    0.0022 C.ar      1 <0>        -0.1003
      3 C3          2.3865    1.4399   -0.0130 C.ar      1 <0>         0.0346
      4 C4          2.4134    0.0372   -0.0208 C.ar      1 <0>        -0.0309
      5 C5          1.2131   -0.6881   -0.0133 C.ar      1 <0>         0.0968
      6 C6          0.0021   -0.0041    0.0020 C.ar      1 <0>        -0.1077
      7 N1          1.5314   -2.0347   -0.0243 N.pl3     1 <0>        -0.5769
      8 H1          0.8834   -2.7565   -0.0224 H         1 <0>         0.4230
      9 C7          2.8808   -2.2035   -0.0386 C.2       1 <0>         0.3466
     10 C8          3.4970   -0.9607   -0.0374 C.2       1 <0>        -0.0450
     11 N2          4.8237   -0.7150   -0.0490 N.2       1 <0>        -0.0905
     12 N3          5.6613   -1.6959   -0.0630 N.2       1 <0>        -0.2974
     13 C9          7.0061   -1.4468   -0.0748 C.ar      1 <0>         0.1458
     14 C10         7.4763   -0.1311   -0.0659 C.ar      1 <0>        -0.1577
     15 C11         8.8338    0.1125   -0.0779 C.ar      1 <0>        -0.0253
     16 C12         9.7293   -0.9423   -0.0992 C.ar      1 <0>        -0.6799
     17 C13         9.2708   -2.2479   -0.1081 C.ar      1 <0>        -0.0135
     18 C14         7.9162   -2.5068   -0.0900 C.ar      1 <0>        -0.1060
     19 S1         11.4617   -0.6213   -0.1156 S.o2      1 <0>         2.7024
     20 O1         12.0815   -1.7660   -0.6855 O.2       1 <0>        -0.9628
     21 O2         11.6281    0.6829   -0.6547 O.2       1 <0>        -0.9626
     22 N4         11.9612   -0.5487    1.4616 N.pl3     1 <0>        -1.2484
     23 O3          3.5209   -3.3948   -0.0519 O.3       1 <0>        -0.4428
     24 C15         3.6521    2.2119   -0.0214 C.2       1 <0>         0.1002
     25 C16         3.7668    3.6163   -0.0098 C.2       1 <0>        -0.2555
     26 C17         5.0818    3.9244   -0.0232 C.2       1 <0>         0.0564
     27 N5          5.7808    2.7690   -0.0425 N.pl3     1 <0>        -0.4858
     28 H2          6.7474    2.6888   -0.0549 H         1 <0>         0.4368
     29 N6          4.8680    1.7066   -0.0354 N.2       1 <0>        -0.2290
     30 H3         -0.9626    1.8964    0.0260 H         1 <0>         0.1393
     31 H4          1.1326    3.1793    0.0080 H         1 <0>         0.1377
     32 H5         -0.9269   -0.5548    0.0083 H         1 <0>         0.1315
     33 H6          6.7785    0.6930   -0.0500 H         1 <0>         0.1563
     34 H7          9.1987    1.1290   -0.0711 H         1 <0>         0.1390
     35 H8          9.9754   -3.0662   -0.1250 H         1 <0>         0.1477
     36 H9          7.5598   -3.5263   -0.0920 H         1 <0>         0.1422
     37 H10        12.8648   -0.8115    1.6968 H         1 <0>         0.4217
     38 H11        11.3502   -0.2433    2.1503 H         1 <0>         0.4171
     39 H12         3.6987   -3.7359   -0.9391 H         1 <0>         0.4099
     40 H13         2.9486    4.3211    0.0068 H         1 <0>         0.1502
     41 H14         5.5007    4.9198   -0.0196 H         1 <0>         0.1769
@<TRIPOS>BOND
     1    1    6 ar
     2    1    2 ar
     3    1   30 1
     4    2    3 ar
     5    2   31 1
     6    3    4 ar
     7    3   24 1
     8    4   10 1
     9    4    5 ar
    10    5    6 ar
    11    5    7 1
    12    6   32 1
    13    7    8 1
    14    7    9 1
    15    9   10 2
    16    9   23 1
    17   10   11 1
    18   11   12 2
    19   12   13 1
    20   13   18 ar
    21   13   14 ar
    22   14   15 ar
    23   14   33 1
    24   15   16 ar
    25   15   34 1
    26   16   17 ar
    27   16   19 1
    28   17   18 ar
    29   17   35 1
    30   18   36 1
    31   19   20 2
    32   19   21 2
    33   19   22 1
    34   22   37 1
    35   22   38 1
    36   23   39 1
    37   24   29 2
    38   24   25 1
    39   25   26 2
    40   25   40 1
    41   26   27 1
    42   26   41 1
    43   27   28 1
    44   27   29 1
@<TRIPOS>MOLECULE
CHEMBL446409
   41    44     0     0     0
SMALL
USER_CHARGES

@<TRIPOS>ATOM
      1 C1         -0.0166    1.3760    0.0096 C.ar      1 <0>        -0.0924
      2 C2          1.1619    2.1003    0.0022 C.ar      1 <0>        -0.0915
      3 C3          2.3875    1.4395   -0.0130 C.ar      1 <0>         0.0097
      4 C4          2.4135    0.0350   -0.0208 C.ar      1 <0>        -0.0389
      5 C5          1.2126   -0.6890   -0.0133 C.ar      1 <0>         0.1003
      6 C6          0.0021   -0.0041    0.0020 C.ar      1 <0>        -0.1033
      7 N1          1.5297   -2.0360   -0.0240 N.pl3     1 <0>        -0.5743
      8 H1          0.8810   -2.7573   -0.0218 H         1 <0>         0.4252
      9 C7          2.8789   -2.2059   -0.0381 C.2       1 <0>         0.3554
     10 C8          3.4960   -0.9633   -0.0370 C.2       1 <0>        -0.0560
     11 N2          4.8230   -0.7184   -0.0490 N.2       1 <0>        -0.1543
     12 N3          5.6599   -1.6999   -0.0626 N.2       1 <0>        -0.2641
     13 C9          7.0049   -1.4517   -0.0747 C.ar      1 <0>         0.1236
     14 C10         7.4760   -0.1363   -0.0665 C.ar      1 <0>        -0.1454
     15 C11         8.8336    0.1064   -0.0788 C.ar      1 <0>        -0.0108
     16 C12         9.7284   -0.9490   -0.0997 C.ar      1 <0>        -0.6714
     17 C13         9.2691   -2.2543   -0.1084 C.ar      1 <0>        -0.0178
     18 C14         7.9143   -2.5123   -0.0895 C.ar      1 <0>        -0.0970
     19 S1         11.4611   -0.6292   -0.1159 S.o2      1 <0>         2.7017
     20 O1         12.0801   -1.7744   -0.6855 O.2       1 <0>        -0.9625
     21 O2         11.6284    0.6748   -0.6553 O.2       1 <0>        -0.9608
     22 N4         11.9603   -0.5565    1.4614 N.pl3     1 <0>        -1.2496
     23 O3          3.5180   -3.3977   -0.0507 O.3       1 <0>        -0.4420
     24 C15         3.6491    2.2086   -0.0214 C.2       1 <0>         0.1280
     25 C16         3.8988    3.3628   -0.7304 C.2       1 <0>        -0.2522
     26 C17         5.2080    3.7556   -0.4523 C.2       1 <0>         0.0480
     27 N5          5.7361    2.8945    0.3796 N.2       1 <0>        -0.2896
     28 H2          4.9075    1.1554    1.2697 H         1 <0>         0.4371
     29 N6          4.7830    1.9122    0.6759 N.pl3     1 <0>        -0.4498
     30 H3         -0.9627    1.8966    0.0260 H         1 <0>         0.1419
     31 H4          1.1314    3.1799    0.0080 H         1 <0>         0.1409
     32 H5         -0.9271   -0.5545    0.0083 H         1 <0>         0.1339
     33 H6          6.7788    0.6883   -0.0509 H         1 <0>         0.1502
     34 H7          9.1993    1.1226   -0.0725 H         1 <0>         0.1467
     35 H8          9.9732   -3.0731   -0.1254 H         1 <0>         0.1507
     36 H9          7.5572   -3.5315   -0.0910 H         1 <0>         0.1442
     37 H10        11.3202   -0.6835    2.1791 H         1 <0>         0.4170
     38 H11        12.8929   -0.3871    1.6676 H         1 <0>         0.4215
     39 H12         3.6956   -3.7394   -0.9377 H         1 <0>         0.4123
     40 H13         3.2060    3.8716   -1.3842 H         1 <0>         0.1503
     41 H14         5.7038    4.6256   -0.8570 H         1 <0>         0.1850
@<TRIPOS>BOND
     1    1    6 ar
     2    1    2 ar
     3    1   30 1
     4    2    3 ar
     5    2   31 1
     6    3    4 ar
     7    3   24 1
     8    4   10 1
     9    4    5 ar
    10    5    6 ar
    11    5    7 1
    12    6   32 1
    13    7    8 1
    14    7    9 1
    15    9   10 2
    16    9   23 1
    17   10   11 1
    18   11   12 2
    19   12   13 1
    20   13   18 ar
    21   13   14 ar
    22   14   15 ar
    23   14   33 1
    24   15   16 ar
    25   15   34 1
    26   16   17 ar
    27   16   19 1
    28   17   18 ar
    29   17   35 1
    30   18   36 1
    31   19   20 2
    32   19   21 2
    33   19   22 1
    34   22   37 1
    35   22   38 1
    36   23   39 1
    37   24   25 2
    38   24   29 1
    39   25   26 1
    40   25   40 1
    41   26   27 2
    42   26   41 1
    43   27   29 1
    44   28   29 1
@<TRIPOS>MOLECULE
CHEMBL313682
   51    54     0     0     0
SMALL
USER_CHARGES

@<TRIPOS>ATOM
      1 C1          2.1541   -4.9850   -2.0129 C.ar      1 <0>        -0.0884
      2 C2          2.4799   -3.7516   -2.5568 C.ar      1 <0>        -0.1268
      3 C3          3.3763   -2.9244   -1.9151 C.ar      1 <0>        -0.0329
      4 C4          3.9550   -3.3328   -0.7157 C.ar      1 <0>        -0.0483
      5 C5          3.6263   -4.5809   -0.1639 C.ar      1 <0>         0.1054
      6 C6          2.7199   -5.4010   -0.8265 C.ar      1 <0>        -0.1231
      7 N1          4.3385   -4.7248    1.0134 N.pl3     1 <0>        -0.5787
      8 H1          4.2955   -5.5000    1.5948 H         1 <0>         0.4226
      9 C7          5.1081   -3.6264    1.2408 C.2       1 <0>         0.3101
     10 C8          4.9242   -2.7173    0.2104 C.2       1 <0>        -0.1259
     11 N2          5.5137   -1.5110    0.0807 N.2       1 <0>        -0.0633
     12 N3          5.4883   -0.6720    1.0603 N.2       1 <0>        -0.1713
     13 C9          4.8691   -1.0080    2.2326 C.ar      1 <0>         0.0726
     14 C10         5.6046   -1.0844    3.4181 C.ar      1 <0>        -0.0877
     15 C11         4.9734   -1.4234    4.5966 C.ar      1 <0>        -0.0109
     16 C12         3.6150   -1.6875    4.6068 C.ar      1 <0>        -0.6735
     17 C13         2.8803   -1.6142    3.4364 C.ar      1 <0>        -0.0092
     18 C14         3.4970   -1.2708    2.2515 C.ar      1 <0>        -0.1314
     19 S1          2.8172   -2.1198    6.1171 S.o2      1 <0>         2.7010
     20 O1          1.6503   -2.8504    5.7654 O.2       1 <0>        -0.9635
     21 O2          3.8219   -2.6530    6.9690 O.2       1 <0>        -0.9599
     22 N4          2.3005   -0.7115    6.8185 N.pl3     1 <0>        -1.2475
     23 O3          5.9241   -3.4490    2.3046 O.3       1 <0>        -0.4524
     24 C15         3.7290   -1.5848   -2.5084 C.3       1 <0>        -0.0721
     25 C16         5.0065   -1.7159   -3.3402 C.3       1 <0>        -0.0687
     26 C17         5.3592   -0.3762   -3.9335 C.ar      1 <0>        -0.0888
     27 C18         4.8592   -0.0165   -5.1714 C.ar      1 <0>        -0.1021
     28 C19         5.1814    1.2108   -5.7177 C.ar      1 <0>        -0.1461
     29 C20         6.0070    2.0827   -5.0229 C.ar      1 <0>         0.0978
     30 C21         6.5071    1.7196   -3.7809 C.ar      1 <0>        -0.1436
     31 C22         6.1777    0.4933   -3.2366 C.ar      1 <0>        -0.0920
     32 O4          6.3258    3.2904   -5.5584 O.3       1 <0>        -0.5015
     33 H2          1.4471   -5.6239   -2.5213 H         1 <0>         0.1335
     34 H3          2.0297   -3.4381   -3.4871 H         1 <0>         0.1312
     35 H4          2.4588   -6.3634   -0.4117 H         1 <0>         0.1275
     36 H5          6.6648   -0.8789    3.4115 H         1 <0>         0.1390
     37 H6          5.5407   -1.4833    5.5136 H         1 <0>         0.1468
     38 H7          1.8206   -1.8220    3.4517 H         1 <0>         0.1430
     39 H8          2.9215   -1.2096    1.3396 H         1 <0>         0.1304
     40 H9          1.5083   -0.7107    7.3783 H         1 <0>         0.4225
     41 H10         2.7899    0.1126    6.6694 H         1 <0>         0.4181
     42 H11         6.8027   -3.8380    2.1955 H         1 <0>         0.4032
     43 H12         2.9135   -1.2439   -3.1463 H         1 <0>         0.0743
     44 H13         3.8895   -0.8635   -1.7072 H         1 <0>         0.0767
     45 H14         5.8220   -2.0568   -2.7023 H         1 <0>         0.0807
     46 H15         4.8459   -2.4372   -4.1414 H         1 <0>         0.0715
     47 H16         4.2165   -0.6957   -5.7118 H         1 <0>         0.1247
     48 H17         4.7912    1.4910   -6.6849 H         1 <0>         0.1261
     49 H18         7.1500    2.3966   -3.2381 H         1 <0>         0.1274
     50 H19         6.5631    0.2119   -2.2678 H         1 <0>         0.1338
     51 H20         5.7111    3.9992   -5.3241 H         1 <0>         0.3896
@<TRIPOS>BOND
     1    1    6 ar
     2    1    2 ar
     3    1   33 1
     4    2    3 ar
     5    2   34 1
     6    3    4 ar
     7    3   24 1
     8    4   10 1
     9    4    5 ar
    10    5    6 ar
    11    5    7 1
    12    6   35 1
    13    7    8 1
    14    7    9 1
    15    9   10 2
    16    9   23 1
    17   10   11 1
    18   11   12 2
    19   12   13 1
    20   13   18 ar
    21   13   14 ar
    22   14   15 ar
    23   14   36 1
    24   15   16 ar
    25   15   37 1
    26   16   17 ar
    27   16   19 1
    28   17   18 ar
    29   17   38 1
    30   18   39 1
    31   19   20 2
    32   19   21 2
    33   19   22 1
    34   22   40 1
    35   22   41 1
    36   23   42 1
    37   24   25 1
    38   24   43 1
    39   24   44 1
    40   25   26 1
    41   25   45 1
    42   25   46 1
    43   26   31 ar
    44   26   27 ar
    45   27   28 ar
    46   27   47 1
    47   28   29 ar
    48   28   48 1
    49   29   30 ar
    50   29   32 1
    51   30   31 ar
    52   30   49 1
    53   31   50 1
    54   32   51 1
@<TRIPOS>MOLECULE
CHEMBL313682
   51    54     0     0     0
SMALL
USER_CHARGES

@<TRIPOS>ATOM
      1 C1          0.4079    1.2040   -0.9348 C.ar      1 <0>        -0.0903
      2 C2          1.6656    1.7736   -0.8038 C.ar      1 <0>        -0.1237
      3 C3          2.7677    0.9783   -0.5751 C.ar      1 <0>        -0.0299
      4 C4          2.6134   -0.4025   -0.4757 C.ar      1 <0>        -0.0442
      5 C5          1.3410   -0.9805   -0.6080 C.ar      1 <0>         0.0986
      6 C6          0.2416   -0.1612   -0.8386 C.ar      1 <0>        -0.1196
      7 N1          1.4807   -2.3496   -0.4673 N.pl3     1 <0>        -0.5762
      8 H1          0.7519   -2.9880   -0.5163 H         1 <0>         0.4227
      9 C7          2.7837   -2.6749   -0.2510 C.2       1 <0>         0.3490
     10 C8          3.5488   -1.5190   -0.2426 C.2       1 <0>        -0.0470
     11 N2          4.8823   -1.4324   -0.0582 N.2       1 <0>        -0.1348
     12 N3          5.5881   -2.5057    0.0592 N.2       1 <0>        -0.2814
     13 C9          6.9190   -2.4192    0.3626 C.ar      1 <0>         0.1377
     14 C10         7.4912   -1.1807    0.6637 C.ar      1 <0>        -0.1508
     15 C11         8.8338   -1.1011    0.9691 C.ar      1 <0>        -0.0163
     16 C12         9.6138   -2.2442    0.9779 C.ar      1 <0>        -0.6772
     17 C13         9.0540   -3.4742    0.6802 C.ar      1 <0>        -0.0117
     18 C14         7.7115   -3.5698    0.3785 C.ar      1 <0>        -0.1022
     19 S1         11.3281   -2.1328    1.3693 S.o2      1 <0>         2.7005
     20 O1         11.9542   -3.2625    0.7769 O.2       1 <0>        -0.9619
     21 O2         11.7259   -0.8004    1.0762 O.2       1 <0>        -0.9590
     22 N4         11.4692   -2.3190    3.0087 N.pl3     1 <0>        -1.2482
     23 O3          3.2580   -3.9288   -0.0722 O.3       1 <0>        -0.4447
     24 C15         4.1334    1.5995   -0.4336 C.3       1 <0>        -0.0747
     25 C16         4.8356    1.6027   -1.7930 C.3       1 <0>        -0.0690
     26 C17         6.1471    2.3361   -1.6792 C.ar      1 <0>        -0.0883
     27 C18         6.2085    3.6882   -1.9615 C.ar      1 <0>        -0.1010
     28 C19         7.4096    4.3628   -1.8584 C.ar      1 <0>        -0.1432
     29 C20         8.5548    3.6824   -1.4708 C.ar      1 <0>         0.1014
     30 C21         8.4905    2.3258   -1.1876 C.ar      1 <0>        -0.1422
     31 C22         7.2859    1.6569   -1.2872 C.ar      1 <0>        -0.1032
     32 O4          9.7378    4.3436   -1.3691 O.3       1 <0>        -0.4997
     33 H2         -0.4500    1.8364   -1.1095 H         1 <0>         0.1342
     34 H3          1.7819    2.8445   -0.8818 H         1 <0>         0.1319
     35 H4         -0.7425   -0.5941   -0.9418 H         1 <0>         0.1285
     36 H5          6.8838   -0.2877    0.6569 H         1 <0>         0.1445
     37 H6          9.2776   -0.1444    1.2018 H         1 <0>         0.1433
     38 H7          9.6688   -4.3621    0.6886 H         1 <0>         0.1487
     39 H8          7.2750   -4.5310    0.1508 H         1 <0>         0.1427
     40 H9         12.2707   -2.7153    3.3847 H         1 <0>         0.4220
     41 H10        10.7502   -2.0318    3.5931 H         1 <0>         0.4173
     42 H11         3.5218   -4.3700   -0.8912 H         1 <0>         0.4114
     43 H12         4.0313    2.6238   -0.0750 H         1 <0>         0.0755
     44 H13         4.7231    1.0224    0.2786 H         1 <0>         0.0844
     45 H14         5.0197    0.5759   -2.1092 H         1 <0>         0.0728
     46 H15         4.2030    2.1012   -2.5275 H         1 <0>         0.0730
     47 H16         5.3167    4.2174   -2.2632 H         1 <0>         0.1259
     48 H17         7.4572    5.4188   -2.0797 H         1 <0>         0.1276
     49 H18         9.3807    1.7939   -0.8857 H         1 <0>         0.1303
     50 H19         7.2344    0.6018   -1.0626 H         1 <0>         0.1259
     51 H20         9.9039    4.7201   -0.4940 H         1 <0>         0.3907
@<TRIPOS>BOND
     1    1    6 ar
     2    1    2 ar
     3    1   33 1
     4    2    3 ar
     5    2   34 1
     6    3    4 ar
     7    3   24 1
     8    4   10 1
     9    4    5 ar
    10    5    6 ar
    11    5    7 1
    12    6   35 1
    13    7    8 1
    14    7    9 1
    15    9   10 2
    16    9   23 1
    17   10   11 1
    18   11   12 2
    19   12   13 1
    20   13   18 ar
    21   13   14 ar
    22   14   15 ar
    23   14   36 1
    24   15   16 ar
    25   15   37 1
    26   16   17 ar
    27   16   19 1
    28   17   18 ar
    29   17   38 1
    30   18   39 1
    31   19   20 2
    32   19   21 2
    33   19   22 1
    34   22   40 1
    35   22   41 1
    36   23   42 1
    37   24   25 1
    38   24   43 1
    39   24   44 1
    40   25   26 1
    41   25   45 1
    42   25   46 1
    43   26   31 ar
    44   26   27 ar
    45   27   28 ar
    46   27   47 1
    47   28   29 ar
    48   28   48 1
    49   29   30 ar
    50   29   32 1
    51   30   31 ar
    52   30   49 1
    53   31   50 1
    54   32   51 1
@<TRIPOS>MOLECULE
CHEMBL315486
   49    52     0     0     0
SMALL
USER_CHARGES

@<TRIPOS>ATOM
      1 C1          2.1541   -4.9850   -2.0129 C.ar      1 <0>        -0.0886
      2 C2          2.4799   -3.7515   -2.5568 C.ar      1 <0>        -0.1255
      3 C3          3.3763   -2.9244   -1.9151 C.ar      1 <0>        -0.0343
      4 C4          3.9550   -3.3328   -0.7157 C.ar      1 <0>        -0.0480
      5 C5          3.6263   -4.5809   -0.1639 C.ar      1 <0>         0.1055
      6 C6          2.7199   -5.4010   -0.8265 C.ar      1 <0>        -0.1216
      7 N1          4.3385   -4.7248    1.0134 N.pl3     1 <0>        -0.5784
      8 H1          4.2955   -5.5000    1.5948 H         1 <0>         0.4229
      9 C7          5.1081   -3.6264    1.2408 C.2       1 <0>         0.3111
     10 C8          4.9242   -2.7173    0.2104 C.2       1 <0>        -0.1267
     11 N2          5.5137   -1.5110    0.0807 N.2       1 <0>        -0.0652
     12 N3          5.4883   -0.6720    1.0603 N.2       1 <0>        -0.1699
     13 C9          4.8691   -1.0080    2.2326 C.ar      1 <0>         0.0720
     14 C10         5.6046   -1.0844    3.4181 C.ar      1 <0>        -0.0873
     15 C11         4.9734   -1.4234    4.5966 C.ar      1 <0>        -0.0108
     16 C12         3.6150   -1.6875    4.6068 C.ar      1 <0>        -0.6732
     17 C13         2.8803   -1.6142    3.4364 C.ar      1 <0>        -0.0092
     18 C14         3.4970   -1.2708    2.2515 C.ar      1 <0>        -0.1315
     19 S1          2.8172   -2.1198    6.1171 S.o2      1 <0>         2.7011
     20 O1          1.6503   -2.8504    5.7654 O.2       1 <0>        -0.9634
     21 O2          3.8219   -2.6530    6.9690 O.2       1 <0>        -0.9597
     22 N4          2.3005   -0.7115    6.8185 N.pl3     1 <0>        -1.2474
     23 O3          5.9241   -3.4490    2.3046 O.3       1 <0>        -0.4522
     24 C15         3.7290   -1.5848   -2.5084 C.3       1 <0>        -0.0710
     25 C16         5.0065   -1.7159   -3.3402 C.3       1 <0>        -0.0719
     26 C17         5.3592   -0.3762   -3.9335 C.ar      1 <0>        -0.0364
     27 C18         4.8676    0.0024   -5.1734 C.ar      1 <0>        -0.1734
     28 C19         5.2126    1.2388   -5.6857 C.ar      1 <0>         0.0965
     29 N5          5.9993    2.0533   -5.0099 N.ar      1 <0>        -0.4905
     30 C20         6.4851    1.7264   -3.8283 C.ar      1 <0>         0.0980
     31 C21         6.1784    0.5092   -3.2500 C.ar      1 <0>        -0.1625
     32 H2          1.4471   -5.6239   -2.5213 H         1 <0>         0.1341
     33 H3          2.0297   -3.4381   -3.4871 H         1 <0>         0.1314
     34 H4          2.4588   -6.3634   -0.4117 H         1 <0>         0.1280
     35 H5          6.6648   -0.8789    3.4115 H         1 <0>         0.1393
     36 H6          5.5407   -1.4833    5.5136 H         1 <0>         0.1470
     37 H7          1.8206   -1.8220    3.4517 H         1 <0>         0.1432
     38 H8          2.9215   -1.2096    1.3396 H         1 <0>         0.1302
     39 H9          1.5083   -0.7107    7.3783 H         1 <0>         0.4225
     40 H10         2.7899    0.1126    6.6694 H         1 <0>         0.4182
     41 H11         6.8027   -3.8380    2.1955 H         1 <0>         0.4035
     42 H12         2.9135   -1.2439   -3.1463 H         1 <0>         0.0753
     43 H13         3.8895   -0.8635   -1.7072 H         1 <0>         0.0776
     44 H14         5.8219   -2.0568   -2.7023 H         1 <0>         0.0848
     45 H15         4.8459   -2.4372   -4.1414 H         1 <0>         0.0758
     46 H16         4.2234   -0.6605   -5.7320 H         1 <0>         0.1323
     47 H17         4.8339    1.5412   -6.6508 H         1 <0>         0.1533
     48 H18         7.1267    2.4196   -3.3047 H         1 <0>         0.1545
     49 H19         6.5753    0.2493   -2.2798 H         1 <0>         0.1410
@<TRIPOS>BOND
     1    1    6 ar
     2    1    2 ar
     3    1   32 1
     4    2    3 ar
     5    2   33 1
     6    3    4 ar
     7    3   24 1
     8    4   10 1
     9    4    5 ar
    10    5    6 ar
    11    5    7 1
    12    6   34 1
    13    7    8 1
    14    7    9 1
    15    9   10 2
    16    9   23 1
    17   10   11 1
    18   11   12 2
    19   12   13 1
    20   13   18 ar
    21   13   14 ar
    22   14   15 ar
    23   14   35 1
    24   15   16 ar
    25   15   36 1
    26   16   17 ar
    27   16   19 1
    28   17   18 ar
    29   17   37 1
    30   18   38 1
    31   19   20 2
    32   19   21 2
    33   19   22 1
    34   22   39 1
    35   22   40 1
    36   23   41 1
    37   24   25 1
    38   24   42 1
    39   24   43 1
    40   25   26 1
    41   25   44 1
    42   25   45 1
    43   26   31 ar
    44   26   27 ar
    45   27   28 ar
    46   27   46 1
    47   28   29 ar
    48   28   47 1
    49   29   30 ar
    50   30   31 ar
    51   30   48 1
    52   31   49 1
@<TRIPOS>MOLECULE
CHEMBL315486
   49    52     0     0     0
SMALL
USER_CHARGES

@<TRIPOS>ATOM
      1 C1          0.4185    1.1860   -0.9340 C.ar      1 <0>        -0.0905
      2 C2          1.6772    1.7530   -0.8018 C.ar      1 <0>        -0.1225
      3 C3          2.7776    0.9554   -0.5728 C.ar      1 <0>        -0.0314
      4 C4          2.6205   -0.4251   -0.4744 C.ar      1 <0>        -0.0437
      5 C5          1.3471   -1.0005   -0.6079 C.ar      1 <0>         0.0987
      6 C6          0.2494   -0.1790   -0.8387 C.ar      1 <0>        -0.1182
      7 N1          1.4839   -2.3701   -0.4680 N.pl3     1 <0>        -0.5762
      8 H1          0.7540   -3.0069   -0.5179 H         1 <0>         0.4230
      9 C7          2.7861   -2.6980   -0.2510 C.2       1 <0>         0.3497
     10 C8          3.5535   -1.5436   -0.2414 C.2       1 <0>        -0.0478
     11 N2          4.8871   -1.4598   -0.0560 N.2       1 <0>        -0.1363
     12 N3          5.5909   -2.5346    0.0598 N.2       1 <0>        -0.2803
     13 C9          6.9218   -2.4510    0.3642 C.ar      1 <0>         0.1370
     14 C10         7.4960   -1.2141    0.6681 C.ar      1 <0>        -0.1513
     15 C11         8.8385   -1.1375    0.9746 C.ar      1 <0>        -0.0166
     16 C12         9.6165   -2.2819    0.9815 C.ar      1 <0>        -0.6764
     17 C13         9.0547   -3.5104    0.6811 C.ar      1 <0>        -0.0114
     18 C14         7.7123   -3.6030    0.3783 C.ar      1 <0>        -0.1018
     19 S1         11.3308   -2.1743    1.3742 S.o2      1 <0>         2.7004
     20 O1         11.9552   -3.3040    0.7800 O.2       1 <0>        -0.9619
     21 O2         11.7311   -0.8421    1.0840 O.2       1 <0>        -0.9580
     22 N4         11.4704   -2.3640    3.0134 N.pl3     1 <0>        -1.2481
     23 O3          3.2579   -3.9529   -0.0727 O.3       1 <0>        -0.4445
     24 C15         4.1444    1.5739   -0.4300 C.3       1 <0>        -0.0735
     25 C16         4.8476    1.5762   -1.7888 C.3       1 <0>        -0.0724
     26 C17         6.1603    2.3074   -1.6739 C.ar      1 <0>        -0.0349
     27 C18         6.2451    3.6623   -1.9558 C.ar      1 <0>        -0.1726
     28 C19         7.4661    4.2992   -1.8394 C.ar      1 <0>         0.1002
     29 N5          8.5413    3.6334   -1.4658 N.ar      1 <0>        -0.4867
     30 C20         8.4979    2.3446   -1.1898 C.ar      1 <0>         0.1015
     31 C21         7.3108    1.6424   -1.2781 C.ar      1 <0>        -0.1747
     32 H2         -0.4381    1.8201   -1.1088 H         1 <0>         0.1347
     33 H3          1.7957    2.8237   -0.8790 H         1 <0>         0.1321
     34 H4         -0.7354   -0.6099   -0.9429 H         1 <0>         0.1291
     35 H5          6.8901   -0.3200    0.6627 H         1 <0>         0.1436
     36 H6          9.2838   -0.1820    1.2093 H         1 <0>         0.1444
     37 H7          9.6679   -4.3993    0.6880 H         1 <0>         0.1489
     38 H8          7.2742   -4.5630    0.1484 H         1 <0>         0.1428
     39 H9         12.2711   -2.7625    3.3890 H         1 <0>         0.4221
     40 H10        10.7516   -2.0767    3.5979 H         1 <0>         0.4174
     41 H11         3.5214   -4.3942   -0.8919 H         1 <0>         0.4116
     42 H12         4.0440    2.5982   -0.0711 H         1 <0>         0.0763
     43 H13         4.7324    0.9952    0.2824 H         1 <0>         0.0856
     44 H14         5.0302    0.5493   -2.1052 H         1 <0>         0.0772
     45 H15         4.2165    2.0761   -2.5237 H         1 <0>         0.0773
     46 H16         5.3683    4.2128   -2.2629 H         1 <0>         0.1338
     47 H17         7.5406    5.3544   -2.0572 H         1 <0>         0.1549
     48 H18         9.3995    1.8329   -0.8872 H         1 <0>         0.1565
     49 H19         7.2805    0.5881   -1.0459 H         1 <0>         0.1333
@<TRIPOS>BOND
     1    1    6 ar
     2    1    2 ar
     3    1   32 1
     4    2    3 ar
     5    2   33 1
     6    3    4 ar
     7    3   24 1
     8    4   10 1
     9    4    5 ar
    10    5    6 ar
    11    5    7 1
    12    6   34 1
    13    7    8 1
    14    7    9 1
    15    9   10 2
    16    9   23 1
    17   10   11 1
    18   11   12 2
    19   12   13 1
    20   13   18 ar
    21   13   14 ar
    22   14   15 ar
    23   14   35 1
    24   15   16 ar
    25   15   36 1
    26   16   17 ar
    27   16   19 1
    28   17   18 ar
    29   17   37 1
    30   18   38 1
    31   19   20 2
    32   19   21 2
    33   19   22 1
    34   22   39 1
    35   22   40 1
    36   23   41 1
    37   24   25 1
    38   24   42 1
    39   24   43 1
    40   25   26 1
    41   25   44 1
    42   25   45 1
    43   26   31 ar
    44   26   27 ar
    45   27   28 ar
    46   27   46 1
    47   28   29 ar
    48   28   47 1
    49   29   30 ar
    50   30   31 ar
    51   30   48 1
    52   31   49 1
@<TRIPOS>MOLECULE
CHEMBL8817
   49    52     0     0     0
SMALL
USER_CHARGES

@<TRIPOS>ATOM
      1 C1          0.4860    1.4931    0.2671 C.3       1 <0>        -0.0689
      2 N1          0.4345    0.0260    0.2134 N.4       1 <0>        -0.3755
      3 C2         -0.9660   -0.4132    0.2092 C.3       1 <0>        -0.0058
      4 C3         -1.6809    0.1376    1.4450 C.3       1 <0>        -0.1540
      5 C4         -0.9846   -0.3836    2.7054 C.3       1 <0>        -0.0300
      6 H1         -1.0669   -1.4698    2.7446 H         1 <0>         0.1128
      7 C5          0.4929    0.0168    2.6630 C.3       1 <0>         0.0916
      8 H2          1.0075   -0.3982    3.5297 H         1 <0>         0.0995
      9 C6          1.1272   -0.5295    1.3821 C.3       1 <0>        -0.0418
     10 O1          0.6019    1.4415    2.6804 O.3       1 <0>        -0.5233
     11 C7         -1.6359    0.2155    3.9252 C.ar      1 <0>        -0.1623
     12 C8         -1.8062    1.5886    4.0159 C.ar      1 <0>         0.2163
     13 C9         -2.4050    2.1560    5.1352 C.ar      1 <0>        -0.2084
     14 C10        -2.8390    1.3524    6.1736 C.ar      1 <0>         0.2330
     15 C11        -2.6706   -0.0352    6.0883 C.ar      1 <0>        -0.2650
     16 C12        -2.0695   -0.6067    4.9531 C.ar      1 <0>         0.1925
     17 O2         -1.9163   -1.9457    4.8782 O.3       1 <0>        -0.2142
     18 C13        -2.3248   -2.7700    5.8557 C.2       1 <0>         0.1942
     19 C14        -2.9216   -2.3188    6.9906 C.2       1 <0>        -0.2817
     20 C15        -3.1174   -0.9279    7.1708 C.2       1 <0>         0.4188
     21 O3         -3.6493   -0.4876    8.1770 O.2       1 <0>        -0.4383
     22 C16        -2.1185   -4.2226    5.6917 C.ar      1 <0>        -0.0654
     23 C17        -3.2044   -5.0983    5.7642 C.ar      1 <0>        -0.0688
     24 C18        -3.0046   -6.4539    5.6096 C.ar      1 <0>        -0.1101
     25 C19        -1.7317   -6.9484    5.3830 C.ar      1 <0>        -0.0794
     26 C20        -0.6512   -6.0884    5.3098 C.ar      1 <0>        -0.1108
     27 C21        -0.8366   -4.7277    5.4574 C.ar      1 <0>        -0.0058
     28 Cl1         0.5196   -3.6485    5.3581 Cl        1 <0>        -0.0579
     29 O4         -3.4233    1.9043    7.2670 O.3       1 <0>        -0.4709
     30 O5         -1.3838    2.3867    3.0023 O.3       1 <0>        -0.4583
     31 H3          1.4994    1.8125    0.5101 H         1 <0>         0.1165
     32 H4          0.1984    1.9024   -0.7014 H         1 <0>         0.1108
     33 H5         -0.2017    1.8530    1.0323 H         1 <0>         0.1628
     34 H6         -1.4594   -0.0442   -0.6900 H         1 <0>         0.1339
     35 H7         -1.0049   -1.5024    0.2229 H         1 <0>         0.1287
     36 H8         -1.6429    1.2269    1.4322 H         1 <0>         0.1076
     37 H9         -2.7202   -0.1910    1.4410 H         1 <0>         0.1122
     38 H10         1.0438   -1.6163    1.3708 H         1 <0>         0.1364
     39 H11         2.1793   -0.2464    1.3489 H         1 <0>         0.1340
     40 H12         1.5123    1.7667    2.6555 H         1 <0>         0.3822
     41 H13        -2.5312    3.2270    5.1940 H         1 <0>         0.1524
     42 H14        -3.2359   -3.0155    7.7536 H         1 <0>         0.1661
     43 H15        -4.1982   -4.7145    5.9413 H         1 <0>         0.1439
     44 H16        -3.8435   -7.1317    5.6659 H         1 <0>         0.1441
     45 H17        -1.5817   -8.0112    5.2631 H         1 <0>         0.1437
     46 H18         0.3392   -6.4813    5.1331 H         1 <0>         0.1441
     47 H19        -4.3837    1.9922    7.1976 H         1 <0>         0.4083
     48 H20        -2.0524    2.5454    2.3219 H         1 <0>         0.3858
     49 H21         0.8880   -0.2948   -0.6290 H         1 <0>         0.4243
@<TRIPOS>BOND
     1    1    2 1
     2    1   31 1
     3    1   32 1
     4    1   33 1
     5    2    9 1
     6    2    3 1
     7    2   49 1
     8    3    4 1
     9    3   34 1
    10    3   35 1
    11    4    5 1
    12    4   36 1
    13    4   37 1
    14    5    6 1
    15    5    7 1
    16    5   11 1
    17    7    8 1
    18    7    9 1
    19    7   10 1
    20    9   38 1
    21    9   39 1
    22   10   40 1
    23   11   16 ar
    24   11   12 ar
    25   12   13 ar
    26   12   30 1
    27   13   14 ar
    28   13   41 1
    29   14   15 ar
    30   14   29 1
    31   15   20 1
    32   15   16 ar
    33   16   17 1
    34   17   18 1
    35   18   19 2
    36   18   22 1
    37   19   20 1
    38   19   42 1
    39   20   21 2
    40   22   27 ar
    41   22   23 ar
    42   23   24 ar
    43   23   43 1
    44   24   25 ar
    45   24   44 1
    46   25   26 ar
    47   25   45 1
    48   26   27 ar
    49   26   46 1
    50   27   28 1
    51   29   47 1
    52   30   48 1
@<TRIPOS>MOLECULE
CHEMBL1087791
   55    57     0     0     0
SMALL
USER_CHARGES

@<TRIPOS>ATOM
      1 C1         -0.0187    1.5258    0.0104 C.3       1 <0>        -0.1745
      2 C2          0.0021   -0.0041    0.0020 C.3       1 <0>        -0.1450
      3 C3          0.7182   -0.4975   -1.2568 C.3       1 <0>         0.1335
      4 H1          0.2444   -0.0644   -2.1377 H         1 <0>         0.0916
      5 C4          0.6303   -2.0233   -1.3286 C.3       1 <0>         0.0684
      6 O1          1.1463   -2.5875   -0.1213 O.3       1 <0>        -0.5691
      7 N1          2.1249   -0.0911   -1.2094 N.pl3     1 <0>        -0.6695
      8 C5          2.4978    1.1690   -1.6521 C.ar      1 <0>         0.6563
      9 N2          1.5663    1.9916   -2.1090 N.ar      1 <0>        -0.5812
     10 C6          1.8863    3.2087   -2.5428 C.ar      1 <0>         0.4402
     11 C7          3.2231    3.6087   -2.5093 C.ar      1 <0>        -0.0366
     12 C8          4.1729    2.7175   -2.0223 C.ar      1 <0>         0.4850
     13 N3          3.7737    1.5164   -1.6007 N.ar      1 <0>        -0.5563
     14 N4          5.4348    3.2964   -2.0694 N.pl3     1 <0>        -0.5646
     15 C9          5.2842    4.6477   -2.6231 C.3       1 <0>         0.3575
     16 N5          3.8490    4.8094   -2.8924 N.pl3     1 <0>        -0.7369
     17 C10         6.6893    2.6715   -1.6431 C.3       1 <0>         0.1559
     18 C11         7.6513    2.5971   -2.8306 C.3       1 <0>        -0.1694
     19 C12         7.3209    3.5053   -0.5266 C.3       1 <0>        -0.1696
     20 N6          0.9047    4.0675   -3.0221 N.pl3     1 <0>        -0.6976
     21 C13        -0.4950    3.6359   -3.0527 C.3       1 <0>         0.1411
     22 C14        -1.3501    4.7435   -3.6119 C.ar      1 <0>        -0.1296
     23 C15        -1.8960    5.6900   -2.7651 C.ar      1 <0>        -0.0947
     24 C16        -2.6805    6.7060   -3.2781 C.ar      1 <0>        -0.1177
     25 C17        -2.9186    6.7759   -4.6379 C.ar      1 <0>        -0.0950
     26 C18        -2.3720    5.8300   -5.4849 C.ar      1 <0>        -0.1178
     27 C19        -1.5840    4.8164   -4.9724 C.ar      1 <0>        -0.0951
     28 H2          1.0039    1.9031    0.0027 H         1 <0>         0.0503
     29 H3         -0.5459    1.8868   -0.8726 H         1 <0>         0.0471
     30 H4         -0.5289    1.8773    0.9072 H         1 <0>         0.0832
     31 H5          0.5293   -0.3651    0.8851 H         1 <0>         0.0972
     32 H6         -1.0205   -0.3814    0.0098 H         1 <0>         0.0947
     33 H7         -0.4106   -2.3218   -1.4533 H         1 <0>         0.0789
     34 H8          1.2150   -2.3814   -2.1759 H         1 <0>         0.0648
     35 H9          1.1218   -3.5538   -0.0969 H         1 <0>         0.3973
     36 H10         2.7954   -0.7034   -0.8683 H         1 <0>         0.4444
     37 H11         5.6172    5.3907   -1.8985 H         1 <0>         0.0877
     38 H12         5.8535    4.7412   -3.5479 H         1 <0>         0.0878
     39 H13         3.4157    5.5937   -3.2638 H         1 <0>         0.4361
     40 H14         6.4875    1.6654   -1.2755 H         1 <0>         0.1114
     41 H15         8.5848    2.1322   -2.5134 H         1 <0>         0.0854
     42 H16         7.2014    2.0031   -3.6260 H         1 <0>         0.0645
     43 H17         7.8532    3.6032   -3.1982 H         1 <0>         0.0658
     44 H18         6.6355    3.5583    0.3194 H         1 <0>         0.0647
     45 H19         8.2543    3.0403   -0.2094 H         1 <0>         0.0855
     46 H20         7.5227    4.5114   -0.8942 H         1 <0>         0.0658
     47 H21         1.1462    4.9528   -3.3364 H         1 <0>         0.4307
     48 H22        -0.5887    2.7512   -3.6825 H         1 <0>         0.0831
     49 H23        -0.8241    3.3982   -2.0411 H         1 <0>         0.0852
     50 H24        -1.7100    5.6354   -1.7026 H         1 <0>         0.1254
     51 H25        -3.1076    7.4451   -2.6164 H         1 <0>         0.1311
     52 H26        -3.5321    7.5694   -5.0386 H         1 <0>         0.1312
     53 H27        -2.5583    5.8844   -6.5473 H         1 <0>         0.1311
     54 H28        -1.1539    4.0796   -5.6345 H         1 <0>         0.1253
     55 H29         0.6401    1.7039   -2.1281 H         1 <0>         0.4346
@<TRIPOS>BOND
     1    1    2 1
     2    1   28 1
     3    1   29 1
     4    1   30 1
     5    2    3 1
     6    2   31 1
     7    2   32 1
     8    3    4 1
     9    3    5 1
    10    3    7 1
    11    5    6 1
    12    5   33 1
    13    5   34 1
    14    6   35 1
    15    7    8 1
    16    7   36 1
    17    8   13 ar
    18    8    9 ar
    19    9   10 ar
    20    9   55 1
    21   10   11 ar
    22   10   20 1
    23   11   16 1
    24   11   12 ar
    25   12   13 ar
    26   12   14 1
    27   14   15 1
    28   14   17 1
    29   15   16 1
    30   15   37 1
    31   15   38 1
    32   16   39 1
    33   17   18 1
    34   17   19 1
    35   17   40 1
    36   18   41 1
    37   18   42 1
    38   18   43 1
    39   19   44 1
    40   19   45 1
    41   19   46 1
    42   20   21 1
    43   20   47 1
    44   21   22 1
    45   21   48 1
    46   21   49 1
    47   22   27 ar
    48   22   23 ar
    49   23   24 ar
    50   23   50 1
    51   24   25 ar
    52   24   51 1
    53   25   26 ar
    54   25   52 1
    55   26   27 ar
    56   26   53 1
    57   27   54 1
@<TRIPOS>MOLECULE
CHEMBL1087791
   55    57     0     0     0
SMALL
USER_CHARGES

@<TRIPOS>ATOM
      1 C1         -0.0187    1.5258    0.0104 C.3       1 <0>        -0.1710
      2 C2          0.0021   -0.0041    0.0020 C.3       1 <0>        -0.1446
      3 C3         -1.4333   -0.5336    0.0129 C.3       1 <0>         0.1336
      4 H1         -1.9701   -0.1109    0.8621 H         1 <0>         0.0919
      5 C4         -1.4133   -2.0590    0.1302 C.3       1 <0>         0.0685
      6 O1         -0.6117   -2.6069   -0.9183 O.3       1 <0>        -0.5692
      7 N1         -2.1054   -0.1483   -1.2305 N.pl3     1 <0>        -0.6694
      8 C5         -2.7067    1.0967   -1.3366 C.ar      1 <0>         0.6576
      9 N2         -3.3135    1.4233   -2.4672 N.ar      1 <0>        -0.5592
     10 C6         -3.9017    2.6093   -2.6061 C.ar      1 <0>         0.5105
     11 C7         -3.8705    3.5087   -1.5392 C.ar      1 <0>        -0.0311
     12 C8         -3.2238    3.1301   -0.3678 C.ar      1 <0>         0.4009
     13 N3         -2.6621    1.9218   -0.3030 N.ar      1 <0>        -0.5720
     14 N4         -3.3015    4.1530    0.5689 N.pl3     1 <0>        -0.5888
     15 C9         -4.0471    5.2603   -0.0422 C.3       1 <0>         0.3677
     16 N5         -4.3945    4.8067   -1.3957 N.pl3     1 <0>        -0.7375
     17 C10        -2.7411    4.1307    1.9222 C.3       1 <0>         0.1559
     18 C11        -1.7290    5.2680    2.0740 C.3       1 <0>        -0.1718
     19 C12        -3.8664    4.3098    2.9432 C.3       1 <0>        -0.1719
     20 N6         -4.5367    2.9469   -3.7951 N.pl3     1 <0>        -0.6671
     21 C13        -4.5623    1.9945   -4.9079 C.3       1 <0>         0.1632
     22 C14        -5.3064    2.5999   -6.0702 C.ar      1 <0>        -0.1302
     23 C15        -6.6727    2.4232   -6.1836 C.ar      1 <0>        -0.0969
     24 C16        -7.3553    2.9785   -7.2498 C.ar      1 <0>        -0.1198
     25 C17        -6.6717    3.7109   -8.2021 C.ar      1 <0>        -0.1001
     26 C18        -5.3055    3.8884   -8.0882 C.ar      1 <0>        -0.1196
     27 C19        -4.6236    3.3367   -7.0198 C.ar      1 <0>        -0.0968
     28 H2          1.0039    1.9031    0.0027 H         1 <0>         0.0820
     29 H3         -0.5459    1.8868   -0.8726 H         1 <0>         0.0493
     30 H4         -0.5289    1.8773    0.9072 H         1 <0>         0.0463
     31 H5          0.5123   -0.3556   -0.8948 H         1 <0>         0.0967
     32 H6          0.5293   -0.3651    0.8851 H         1 <0>         0.0940
     33 H7         -0.9936   -2.3437    1.0951 H         1 <0>         0.0785
     34 H8         -2.4301   -2.4431    0.0488 H         1 <0>         0.0646
     35 H9         -0.5540   -3.5721   -0.9058 H         1 <0>         0.3973
     36 H10        -2.1298   -0.7641   -1.9796 H         1 <0>         0.4449
     37 H11        -4.9519    5.4658    0.5298 H         1 <0>         0.0833
     38 H12        -3.4223    6.1521   -0.0928 H         1 <0>         0.0834
     39 H13        -4.8899    5.3067   -2.0631 H         1 <0>         0.4395
     40 H14        -2.2434    3.1762    2.0937 H         1 <0>         0.0887
     41 H15        -0.9273    5.1405    1.3466 H         1 <0>         0.0659
     42 H16        -2.2267    6.2225    1.9025 H         1 <0>         0.0723
     43 H17        -1.3120    5.2514    3.0809 H         1 <0>         0.0872
     44 H18        -4.5874    3.4995    2.8351 H         1 <0>         0.0654
     45 H19        -3.4494    4.2931    3.9502 H         1 <0>         0.0873
     46 H20        -4.3641    5.2642    2.7718 H         1 <0>         0.0725
     47 H21        -4.9630    3.8133   -3.8882 H         1 <0>         0.4216
     48 H22        -3.5414    1.7626   -5.2113 H         1 <0>         0.0905
     49 H23        -5.0641    1.0799   -4.5919 H         1 <0>         0.0903
     50 H24        -7.2069    1.8509   -5.4396 H         1 <0>         0.1246
     51 H25        -8.4227    2.8398   -7.3388 H         1 <0>         0.1287
     52 H26        -7.2049    4.1442   -9.0355 H         1 <0>         0.1288
     53 H27        -4.7714    4.4604   -8.8324 H         1 <0>         0.1288
     54 H28        -3.5568    3.4786   -6.9287 H         1 <0>         0.1248
     55 H29        -2.2117    1.6462    0.5107 H         1 <0>         0.4302
@<TRIPOS>BOND
     1    1    2 1
     2    1   28 1
     3    1   29 1
     4    1   30 1
     5    2    3 1
     6    2   31 1
     7    2   32 1
     8    3    4 1
     9    3    5 1
    10    3    7 1
    11    5    6 1
    12    5   33 1
    13    5   34 1
    14    6   35 1
    15    7    8 1
    16    7   36 1
    17    8   13 ar
    18    8    9 ar
    19    9   10 ar
    20   10   11 ar
    21   10   20 1
    22   11   16 1
    23   11   12 ar
    24   12   13 ar
    25   12   14 1
    26   13   55 1
    27   14   15 1
    28   14   17 1
    29   15   16 1
    30   15   37 1
    31   15   38 1
    32   16   39 1
    33   17   18 1
    34   17   19 1
    35   17   40 1
    36   18   41 1
    37   18   42 1
    38   18   43 1
    39   19   44 1
    40   19   45 1
    41   19   46 1
    42   20   21 1
    43   20   47 1
    44   21   22 1
    45   21   48 1
    46   21   49 1
    47   22   27 ar
    48   22   23 ar
    49   23   24 ar
    50   23   50 1
    51   24   25 ar
    52   24   51 1
    53   25   26 ar
    54   25   52 1
    55   26   27 ar
    56   26   53 1
    57   27   54 1
@<TRIPOS>MOLECULE
CHEMBL1077107
   60    64     0     0     0
SMALL
USER_CHARGES

@<TRIPOS>ATOM
      1 C1          0.4581    0.9824   -1.3304 C.3       1 <0>        -0.1307
      2 C2          0.4129   -0.5230   -1.3825 C.2       1 <0>         0.2184
      3 C3         -0.7092   -1.1320   -1.7997 C.2       1 <0>        -0.3217
      4 C4         -0.8312   -2.6326   -1.8417 C.3       1 <0>         0.2407
      5 N1          0.5103   -3.2273   -1.7270 N.2       1 <0>        -0.7081
      6 C5          1.3863   -2.6092   -0.8492 C.2       1 <0>         0.5729
      7 N2          1.5206   -1.2403   -1.0082 N.pl3     1 <0>        -0.6954
      8 N3          2.0489   -3.2804    0.0713 N.2       1 <0>        -0.3925
      9 N4          2.9852   -2.6227    0.8798 N.am      1 <0>        -0.3443
     10 C6          2.5987   -1.6962    1.7442 C.2       1 <0>         0.5045
     11 O1          1.4284   -1.3836    1.8684 O.2       1 <0>        -0.4252
     12 C7          3.6623   -1.0629    2.5494 C.2       1 <0>        -0.2975
     13 C8          3.5462   -0.0623    3.5322 C.2       1 <0>         0.0808
     14 C9          2.2916    0.3399    3.9680 C.2       1 <0>        -0.0458
     15 C10         2.0175    1.4175    4.8404 C.2       1 <0>        -0.1367
     16 C11         0.6432    1.4537    4.9996 C.2       1 <0>        -0.2292
     17 C12         0.1151    0.4254    4.2423 C.2       1 <0>        -0.0021
     18 O2          1.1108   -0.2248    3.6299 O.3       1 <0>        -0.0966
     19 S1          5.0480   -1.8401    1.9958 S.3       1 <0>         0.0959
     20 C13         4.2973   -2.9244    0.7973 C.2       1 <0>         0.2837
     21 S2          5.0597   -4.0730   -0.2179 S.2       1 <0>        -0.3637
     22 C14        -1.4583   -3.0510   -3.1466 C.ar      1 <0>        -0.0528
     23 C15        -0.6589   -3.3250   -4.2401 C.ar      1 <0>        -0.0452
     24 C16        -1.2307   -3.7087   -5.4378 C.ar      1 <0>        -0.1554
     25 C17        -2.6100   -3.8200   -5.5455 C.ar      1 <0>         0.1004
     26 C18        -3.4139   -3.5458   -4.4501 C.ar      1 <0>        -0.1774
     27 C19        -2.8373   -3.1662   -3.2475 C.ar      1 <0>         0.1068
     28 O3         -3.6224   -2.9025   -2.1701 O.3       1 <0>        -0.4899
     29 O4         -3.1719   -4.1972   -6.7239 O.3       1 <0>        -0.5015
     30 C20        -1.8094   -0.3403   -2.2115 C.2       1 <0>         0.5953
     31 O5         -2.0408   -0.1892   -3.3973 O.2       1 <0>        -0.5137
     32 N5         -2.6001    0.2457   -1.2907 N.am      1 <0>        -0.6793
     33 C21        -3.7437    0.9427   -1.6928 C.ar      1 <0>         0.1686
     34 C22        -4.4622    0.5193   -2.8038 C.ar      1 <0>        -0.0744
     35 C23        -5.5913    1.2095   -3.1980 C.ar      1 <0>        -0.0909
     36 C24        -6.0072    2.3212   -2.4880 C.ar      1 <0>        -0.0742
     37 C25        -5.2943    2.7453   -1.3818 C.ar      1 <0>         0.0174
     38 C26        -4.1669    2.0563   -0.9791 C.ar      1 <0>        -0.0912
     39 N6         -5.7430    3.9356   -0.6250 N.pl3     1 <0>        -0.0166
     40 O6         -6.8206    4.5901   -1.0054 O.2       1 <0>        -0.1697
     41 O7         -5.0645    4.3401    0.4288 O.3       1 <0>        -0.1710
     42 H1          1.4074    1.3028   -0.9011 H         1 <0>         0.0673
     43 H2          0.3615    1.3840   -2.3391 H         1 <0>         0.0791
     44 H3         -0.3620    1.3493   -0.7132 H         1 <0>         0.0769
     45 H4         -1.4522   -2.9712   -1.0123 H         1 <0>         0.0418
     46 H5          4.4334    0.3926    3.9472 H         1 <0>         0.1725
     47 H6          2.7385    2.0815    5.2940 H         1 <0>         0.1579
     48 H7          0.0869    2.1550    5.6038 H         1 <0>         0.1543
     49 H8         -0.9348    0.1873    4.1552 H         1 <0>         0.2046
     50 H9          0.4145   -3.2386   -4.1584 H         1 <0>         0.1366
     51 H10        -0.6040   -3.9220   -6.2911 H         1 <0>         0.1226
     52 H11        -4.4873   -3.6318   -4.5319 H         1 <0>         0.1238
     53 H12        -3.9578   -1.9960   -2.1404 H         1 <0>         0.3682
     54 H13        -3.2855   -5.1529   -6.8175 H         1 <0>         0.3838
     55 H14        -2.3758    0.1841   -0.3490 H         1 <0>         0.4169
     56 H15        -4.1378   -0.3486   -3.3588 H         1 <0>         0.1538
     57 H16        -6.1502    0.8810   -4.0618 H         1 <0>         0.1541
     58 H17        -6.8904    2.8595   -2.7986 H         1 <0>         0.1556
     59 H18        -3.6131    2.3854   -0.1122 H         1 <0>         0.1569
     60 H19         2.3718   -0.8006   -0.8562 H         1 <0>         0.3807
@<TRIPOS>BOND
     1    1    2 1
     2    1   42 1
     3    1   43 1
     4    1   44 1
     5    2    7 1
     6    2    3 2
     7    3    4 1
     8    3   30 1
     9    4    5 1
    10    4   22 1
    11    4   45 1
    12    5    6 1
    13    6    7 1
    14    6    8 2
    15    7   60 1
    16    8    9 1
    17    9   20 1
    18    9   10 am
    19   10   11 2
    20   10   12 1
    21   12   13 2
    22   12   19 1
    23   13   14 1
    24   13   46 1
    25   14   18 1
    26   14   15 2
    27   15   16 1
    28   15   47 1
    29   16   17 2
    30   16   48 1
    31   17   18 1
    32   17   49 1
    33   19   20 1
    34   20   21 2
    35   22   27 ar
    36   22   23 ar
    37   23   24 ar
    38   23   50 1
    39   24   25 ar
    40   24   51 1
    41   25   26 ar
    42   25   29 1
    43   26   27 ar
    44   26   52 1
    45   27   28 1
    46   28   53 1
    47   29   54 1
    48   30   31 2
    49   30   32 am
    50   32   33 1
    51   32   55 1
    52   33   38 ar
    53   33   34 ar
    54   34   35 ar
    55   34   56 1
    56   35   36 ar
    57   35   57 1
    58   36   37 ar
    59   36   58 1
    60   37   38 ar
    61   37   39 1
    62   38   59 1
    63   39   40 2
    64   39   41 1
@<TRIPOS>MOLECULE
CHEMBL1077107
   61    65     0     0     0
SMALL
USER_CHARGES

@<TRIPOS>ATOM
      1 C1          1.1047    0.5367    2.9493 C.3       1 <0>        -0.1181
      2 C2          0.8949   -0.7462    2.1868 C.2       1 <0>         0.2763
      3 C3         -0.2676   -0.9451    1.5441 C.2       1 <0>        -0.3258
      4 C4         -0.5267   -2.1893    0.7358 C.3       1 <0>         0.2740
      5 N1          0.4809   -3.2052    1.0809 N.pl3     1 <0>        -0.7129
      6 C5          1.7724   -2.7479    1.2882 C.2       1 <0>         0.6258
      7 N2          1.8976   -1.6819    2.1603 N.pl3     1 <0>        -0.6737
      8 N3          2.8143   -3.2901    0.6906 N.2       1 <0>        -0.3032
      9 N4          4.0848   -2.7197    0.8433 N.am      1 <0>        -0.3707
     10 C6          4.3560   -1.5280    0.3321 C.2       1 <0>         0.5140
     11 O1          3.5216   -0.8893   -0.2833 O.2       1 <0>        -0.4273
     12 C7          5.7238   -1.0150    0.5485 C.2       1 <0>        -0.3373
     13 C8          6.2851    0.2041    0.1251 C.2       1 <0>         0.1279
     14 C9          5.4795    1.1754   -0.4522 C.2       1 <0>        -0.0684
     15 C10         5.9196    2.3851   -1.0359 C.2       1 <0>        -0.1076
     16 C11         4.7854    3.0410   -1.4817 C.2       1 <0>        -0.2275
     17 C12         3.7008    2.2427   -1.1712 C.2       1 <0>         0.0152
     18 O2          4.1330    1.1325   -0.5630 O.3       1 <0>        -0.1022
     19 S1          6.4415   -2.2556    1.4297 S.3       1 <0>         0.1692
     20 C13         5.0542   -3.3706    1.5186 C.2       1 <0>         0.2534
     21 S2          4.9722   -4.9029    2.2778 S.2       1 <0>        -0.3194
     22 C14        -0.4327   -1.8648   -0.7329 C.ar      1 <0>        -0.1565
     23 C15         0.1484   -0.6796   -1.1423 C.ar      1 <0>        -0.0482
     24 C16         0.2360   -0.3793   -2.4879 C.ar      1 <0>        -0.1525
     25 C17        -0.2597   -1.2676   -3.4321 C.ar      1 <0>         0.1366
     26 C18        -0.8429   -2.4570   -3.0240 C.ar      1 <0>        -0.1798
     27 C19        -0.9246   -2.7587   -1.6732 C.ar      1 <0>         0.1499
     28 O3         -1.4904   -3.9267   -1.2702 O.3       1 <0>        -0.4902
     29 O4         -0.1736   -0.9714   -4.7556 O.3       1 <0>        -0.4977
     30 C20        -1.2790    0.0432    1.6294 C.2       1 <0>         0.5870
     31 O5         -1.0514    1.1004    2.1888 O.2       1 <0>        -0.5272
     32 N5         -2.4930   -0.1869    1.0913 N.am      1 <0>        -0.6716
     33 C21        -3.4474    0.8345    1.0569 C.ar      1 <0>         0.1629
     34 C22        -3.0499    2.1528    0.8732 C.ar      1 <0>        -0.0631
     35 C23        -3.9950    3.1590    0.8393 C.ar      1 <0>        -0.0950
     36 C24        -5.3361    2.8554    0.9879 C.ar      1 <0>        -0.0666
     37 C25        -5.7352    1.5443    1.1708 C.ar      1 <0>         0.0175
     38 C26        -4.7954    0.5325    1.2005 C.ar      1 <0>        -0.0869
     39 N6         -7.1715    1.2240    1.3294 N.pl3     1 <0>        -0.0213
     40 O6         -8.0686    2.1876    1.2962 O.2       1 <0>        -0.1612
     41 O7         -7.5524   -0.0246    1.5037 O.3       1 <0>        -0.1662
     42 H1          2.0824    0.5174    3.4309 H         1 <0>         0.0592
     43 H2          1.0553    1.3806    2.2611 H         1 <0>         0.1069
     44 H3          0.3283    0.6400    3.7072 H         1 <0>         0.1077
     45 H4         -1.5220   -2.5710    0.9631 H         1 <0>         0.1077
     46 H5          7.3427    0.3837    0.2494 H         1 <0>         0.1802
     47 H6          6.9398    2.7299   -1.1175 H         1 <0>         0.1649
     48 H7          4.7536    3.9989   -1.9794 H         1 <0>         0.1605
     49 H8          2.6690    2.4760   -1.3889 H         1 <0>         0.2073
     50 H9          0.5343    0.0131   -0.4091 H         1 <0>         0.1269
     51 H10         0.6902    0.5477   -2.8054 H         1 <0>         0.1282
     52 H11        -1.2292   -3.1495   -3.7572 H         1 <0>         0.1372
     53 H12        -2.4535   -3.8902   -1.1903 H         1 <0>         0.3925
     54 H13         0.6387   -1.2845   -5.1767 H         1 <0>         0.3960
     55 H14        -2.7047   -1.0609    0.7278 H         1 <0>         0.4119
     56 H15        -2.0028    2.3906    0.7575 H         1 <0>         0.1541
     57 H16        -3.6865    4.1842    0.6969 H         1 <0>         0.1549
     58 H17        -6.0733    3.6443    0.9613 H         1 <0>         0.1581
     59 H18        -5.1081   -0.4919    1.3389 H         1 <0>         0.1577
     60 H19         2.6715   -1.6004    2.7394 H         1 <0>         0.4223
     61 H20         0.2529   -4.1448    1.1594 H         1 <0>         0.4340
@<TRIPOS>BOND
     1    1    2 1
     2    1   42 1
     3    1   43 1
     4    1   44 1
     5    2    7 1
     6    2    3 2
     7    3    4 1
     8    3   30 1
     9    4    5 1
    10    4   22 1
    11    4   45 1
    12    5    6 1
    13    5   61 1
    14    6    7 1
    15    6    8 2
    16    7   60 1
    17    8    9 1
    18    9   20 1
    19    9   10 am
    20   10   11 2
    21   10   12 1
    22   12   13 2
    23   12   19 1
    24   13   14 1
    25   13   46 1
    26   14   18 1
    27   14   15 2
    28   15   16 1
    29   15   47 1
    30   16   17 2
    31   16   48 1
    32   17   18 1
    33   17   49 1
    34   19   20 1
    35   20   21 2
    36   22   27 ar
    37   22   23 ar
    38   23   24 ar
    39   23   50 1
    40   24   25 ar
    41   24   51 1
    42   25   26 ar
    43   25   29 1
    44   26   27 ar
    45   26   52 1
    46   27   28 1
    47   28   53 1
    48   29   54 1
    49   30   31 2
    50   30   32 am
    51   32   33 1
    52   32   55 1
    53   33   38 ar
    54   33   34 ar
    55   34   35 ar
    56   34   56 1
    57   35   36 ar
    58   35   57 1
    59   36   37 ar
    60   36   58 1
    61   37   38 ar
    62   37   39 1
    63   38   59 1
    64   39   40 2
    65   39   41 1
@<TRIPOS>MOLECULE
CHEMBL1077107
   60    64     0     0     0
SMALL
USER_CHARGES

@<TRIPOS>ATOM
      1 C1         -0.8881    2.2497   -0.1199 C.3       1 <0>        -0.1309
      2 C2         -0.7926    0.7980   -0.5129 C.2       1 <0>         0.1963
      3 C3         -1.9102    0.1352   -0.8532 C.2       1 <0>        -0.3042
      4 C4         -1.8786   -1.3060   -1.2893 C.3       1 <0>         0.2456
      5 N1         -0.5775   -1.8899   -0.9250 N.2       1 <0>        -0.7223
      6 C5          0.5312   -1.0742   -1.0842 C.2       1 <0>         0.5838
      7 N2          0.4344    0.1849   -0.5205 N.pl3     1 <0>        -0.7016
      8 N3          1.6073   -1.4700   -1.7341 N.2       1 <0>        -0.3966
      9 N4          2.6891   -0.5946   -1.8965 N.am      1 <0>        -0.3407
     10 C6          3.4143   -0.2164   -0.8543 C.2       1 <0>         0.4974
     11 O1          3.1719   -0.6101    0.2722 O.2       1 <0>        -0.4371
     12 C7          4.5325    0.7076   -1.1313 C.2       1 <0>        -0.2999
     13 C8          5.4574    1.2669   -0.2301 C.2       1 <0>         0.0820
     14 C9          5.4905    0.8342    1.0880 C.2       1 <0>        -0.0467
     15 C10         6.2656    1.3922    2.1298 C.2       1 <0>        -0.1360
     16 C11         5.9876    0.6517    3.2655 C.2       1 <0>        -0.2308
     17 C12         5.0721   -0.3200    2.9080 C.2       1 <0>        -0.0003
     18 O2          4.7829   -0.1934    1.6082 O.3       1 <0>        -0.0974
     19 S1          4.4218    0.9223   -2.7963 S.3       1 <0>         0.1025
     20 C13         3.0161   -0.1247   -3.1179 C.2       1 <0>         0.2891
     21 S2          2.2600   -0.4539   -4.6182 S.2       1 <0>        -0.3613
     22 C14        -2.9826   -2.0655   -0.5999 C.ar      1 <0>        -0.0710
     23 C15        -2.7339   -2.7111    0.5965 C.ar      1 <0>        -0.0521
     24 C16        -3.7440   -3.4082    1.2309 C.ar      1 <0>        -0.1619
     25 C17        -5.0115   -3.4617    0.6678 C.ar      1 <0>         0.1007
     26 C18        -5.2634   -2.8151   -0.5321 C.ar      1 <0>        -0.1792
     27 C19        -4.2495   -2.1114   -1.1640 C.ar      1 <0>         0.1144
     28 O3         -4.4950   -1.4714   -2.3374 O.3       1 <0>        -0.4874
     29 O4         -6.0045   -4.1480    1.2921 O.3       1 <0>        -0.5005
     30 C20        -3.1542    0.8110   -0.7999 C.2       1 <0>         0.6022
     31 O5         -3.6730    1.2131   -1.8254 O.2       1 <0>        -0.5072
     32 N5         -3.7634    1.0087    0.3860 N.am      1 <0>        -0.6770
     33 C21        -5.0543    1.5444    0.4281 C.ar      1 <0>         0.1723
     34 C22        -5.9691    1.2354   -0.5707 C.ar      1 <0>        -0.0606
     35 C23        -7.2432    1.7657   -0.5259 C.ar      1 <0>        -0.0983
     36 C24        -7.6091    2.6036    0.5119 C.ar      1 <0>        -0.0749
     37 C25        -6.7011    2.9131    1.5076 C.ar      1 <0>         0.0124
     38 C26        -5.4266    2.3818    1.4715 C.ar      1 <0>        -0.0953
     39 N6         -7.0970    3.8101    2.6163 N.pl3     1 <0>        -0.0142
     40 O6         -8.3136    4.3131    2.6540 O.2       1 <0>        -0.1737
     41 O7         -6.2326    4.1054    3.5651 O.3       1 <0>        -0.1754
     42 H1          0.0935    2.6071    0.1915 H         1 <0>         0.0667
     43 H2         -1.2343    2.8348   -0.9718 H         1 <0>         0.0822
     44 H3         -1.5924    2.3572    0.7050 H         1 <0>         0.0762
     45 H4         -2.0143   -1.3632   -2.3693 H         1 <0>         0.0413
     46 H5          6.1415    2.0329   -0.5643 H         1 <0>         0.1733
     47 H6          6.9420    2.2309    2.0544 H         1 <0>         0.1585
     48 H7          6.4081    0.8046    4.2484 H         1 <0>         0.1543
     49 H8          4.6537   -1.0608    3.5732 H         1 <0>         0.2052
     50 H9         -1.7483   -2.6708    1.0360 H         1 <0>         0.1384
     51 H10        -3.5471   -3.9121    2.1656 H         1 <0>         0.1221
     52 H11        -6.2490   -2.8556   -0.9718 H         1 <0>         0.1250
     53 H12        -4.3415   -2.0156   -3.1219 H         1 <0>         0.3876
     54 H13        -6.5190   -3.6161    1.9145 H         1 <0>         0.3831
     55 H14        -3.3063    0.7794    1.2103 H         1 <0>         0.4120
     56 H15        -5.6839    0.5815   -1.3816 H         1 <0>         0.1657
     57 H16        -7.9548    1.5262   -1.3023 H         1 <0>         0.1516
     58 H17        -8.6062    3.0173    0.5444 H         1 <0>         0.1533
     59 H18        -4.7192    2.6203    2.2520 H         1 <0>         0.1542
     60 H19         1.2122    0.6205   -0.1382 H         1 <0>         0.3852
@<TRIPOS>BOND
     1    1    2 1
     2    1   42 1
     3    1   43 1
     4    1   44 1
     5    2    7 1
     6    2    3 2
     7    3    4 1
     8    3   30 1
     9    4    5 1
    10    4   22 1
    11    4   45 1
    12    5    6 1
    13    6    7 1
    14    6    8 2
    15    7   60 1
    16    8    9 1
    17    9   20 1
    18    9   10 am
    19   10   11 2
    20   10   12 1
    21   12   13 2
    22   12   19 1
    23   13   14 1
    24   13   46 1
    25   14   18 1
    26   14   15 2
    27   15   16 1
    28   15   47 1
    29   16   17 2
    30   16   48 1
    31   17   18 1
    32   17   49 1
    33   19   20 1
    34   20   21 2
    35   22   27 ar
    36   22   23 ar
    37   23   24 ar
    38   23   50 1
    39   24   25 ar
    40   24   51 1
    41   25   26 ar
    42   25   29 1
    43   26   27 ar
    44   26   52 1
    45   27   28 1
    46   28   53 1
    47   29   54 1
    48   30   31 2
    49   30   32 am
    50   32   33 1
    51   32   55 1
    52   33   38 ar
    53   33   34 ar
    54   34   35 ar
    55   34   56 1
    56   35   36 ar
    57   35   57 1
    58   36   37 ar
    59   36   58 1
    60   37   38 ar
    61   37   39 1
    62   38   59 1
    63   39   40 2
    64   39   41 1
@<TRIPOS>MOLECULE
CHEMBL1077107
   61    65     0     0     0
SMALL
USER_CHARGES

@<TRIPOS>ATOM
      1 C1         -0.9382    1.1441   -0.1736 C.3       1 <0>        -0.1176
      2 C2         -0.5369   -0.2114   -0.6958 C.2       1 <0>         0.2771
      3 C3         -1.4635   -0.9922   -1.2753 C.2       1 <0>        -0.3234
      4 C4         -1.1355   -2.3707   -1.7857 C.3       1 <0>         0.2652
      5 N1          0.3266   -2.5156   -1.8731 N.pl3     1 <0>        -0.7143
      6 C5          1.0658   -1.9409   -0.8517 C.2       1 <0>         0.6226
      7 N2          0.7675   -0.6176   -0.5735 N.pl3     1 <0>        -0.6730
      8 N3          1.9922   -2.6082   -0.1933 N.2       1 <0>        -0.3036
      9 N4          2.7663   -1.9593    0.7775 N.am      1 <0>        -0.3720
     10 C6          2.2130   -1.5141    1.8958 C.2       1 <0>         0.5105
     11 O1          1.0240   -1.6498    2.1211 O.2       1 <0>        -0.4295
     12 C7          3.1146   -0.8448    2.8550 C.2       1 <0>        -0.3416
     13 C8          2.8075   -0.2814    4.1074 C.2       1 <0>         0.1310
     14 C9          1.5479   -0.4642    4.6604 C.2       1 <0>        -0.0716
     15 C10         1.0543    0.1519    5.8327 C.2       1 <0>        -0.1056
     16 C11        -0.2362   -0.3162    6.0082 C.2       1 <0>        -0.2294
     17 C12        -0.5021   -1.1869    4.9685 C.2       1 <0>         0.0201
     18 O2          0.5699   -1.2592    4.1718 O.3       1 <0>        -0.1025
     19 S1          4.6018   -0.9266    2.0726 S.3       1 <0>         0.1724
     20 C13         4.0906   -1.7804    0.5943 C.2       1 <0>         0.2573
     21 S2          5.0506   -2.2578   -0.7404 S.2       1 <0>        -0.3186
     22 C14        -1.6886   -3.4039   -0.8382 C.ar      1 <0>        -0.1650
     23 C15        -2.0149   -3.0486    0.4568 C.ar      1 <0>        -0.0520
     24 C16        -2.5222   -3.9934    1.3278 C.ar      1 <0>        -0.1528
     25 C17        -2.7053   -5.3023    0.9039 C.ar      1 <0>         0.1403
     26 C18        -2.3789   -5.6611   -0.3946 C.ar      1 <0>        -0.1749
     27 C19        -1.8752   -4.7097   -1.2685 C.ar      1 <0>         0.1477
     28 O3         -1.5598   -5.0571   -2.5439 O.3       1 <0>        -0.4941
     29 O4         -3.2039   -6.2313    1.7612 O.3       1 <0>        -0.4966
     30 C20        -2.7871   -0.5055   -1.4098 C.2       1 <0>         0.5863
     31 O5         -3.0480    0.6426   -1.0994 O.2       1 <0>        -0.5281
     32 N5         -3.7575   -1.3132   -1.8813 N.am      1 <0>        -0.6720
     33 C21        -5.0350   -0.8010   -2.1279 C.ar      1 <0>         0.1621
     34 C22        -5.1858    0.4989   -2.5941 C.ar      1 <0>        -0.0635
     35 C23        -6.4487    1.0015   -2.8371 C.ar      1 <0>        -0.0950
     36 C24        -7.5629    0.2122   -2.6169 C.ar      1 <0>        -0.0669
     37 C25        -7.4164   -1.0820   -2.1530 C.ar      1 <0>         0.0170
     38 C26        -6.1556   -1.5926   -1.9129 C.ar      1 <0>        -0.0857
     39 N6         -8.6116   -1.9231   -1.9188 N.pl3     1 <0>        -0.0206
     40 O6         -9.8138   -1.4386   -2.1522 O.2       1 <0>        -0.1615
     41 O7         -8.4728   -3.1560   -1.4769 O.3       1 <0>        -0.1676
     42 H1         -0.0874    1.6075    0.3258 H         1 <0>         0.0586
     43 H2         -1.2588    1.7730   -1.0041 H         1 <0>         0.1094
     44 H3         -1.7587    1.0321    0.5352 H         1 <0>         0.1046
     45 H4         -1.5752   -2.5078   -2.7736 H         1 <0>         0.1181
     46 H5          3.5520    0.2933    4.6383 H         1 <0>         0.1804
     47 H6          1.5806    0.8500    6.4669 H         1 <0>         0.1653
     48 H7         -0.9103   -0.0507    6.8092 H         1 <0>         0.1610
     49 H8         -1.4293   -1.7205    4.8203 H         1 <0>         0.2087
     50 H9         -1.8728   -2.0307    0.7887 H         1 <0>         0.1268
     51 H10        -2.7761   -3.7134    2.3395 H         1 <0>         0.1300
     52 H11        -2.5207   -6.6791   -0.7263 H         1 <0>         0.1393
     53 H12        -0.6482   -5.3599   -2.6551 H         1 <0>         0.3963
     54 H13        -4.1684   -6.3009    1.7484 H         1 <0>         0.3974
     55 H14        -3.5697   -2.2499   -2.0495 H         1 <0>         0.4155
     56 H15        -4.3161    1.1159   -2.7659 H         1 <0>         0.1556
     57 H16        -6.5666    2.0121   -3.1992 H         1 <0>         0.1553
     58 H17        -8.5496    0.6078   -2.8075 H         1 <0>         0.1581
     59 H18        -6.0416   -2.6051   -1.5548 H         1 <0>         0.1563
     60 H19         1.4596    0.0032   -0.2970 H         1 <0>         0.4202
     61 H20         0.7501   -2.9885   -2.6066 H         1 <0>         0.4327
@<TRIPOS>BOND
     1    1    2 1
     2    1   42 1
     3    1   43 1
     4    1   44 1
     5    2    7 1
     6    2    3 2
     7    3    4 1
     8    3   30 1
     9    4    5 1
    10    4   22 1
    11    4   45 1
    12    5    6 1
    13    5   61 1
    14    6    7 1
    15    6    8 2
    16    7   60 1
    17    8    9 1
    18    9   20 1
    19    9   10 am
    20   10   11 2
    21   10   12 1
    22   12   13 2
    23   12   19 1
    24   13   14 1
    25   13   46 1
    26   14   18 1
    27   14   15 2
    28   15   16 1
    29   15   47 1
    30   16   17 2
    31   16   48 1
    32   17   18 1
    33   17   49 1
    34   19   20 1
    35   20   21 2
    36   22   27 ar
    37   22   23 ar
    38   23   24 ar
    39   23   50 1
    40   24   25 ar
    41   24   51 1
    42   25   26 ar
    43   25   29 1
    44   26   27 ar
    45   26   52 1
    46   27   28 1
    47   28   53 1
    48   29   54 1
    49   30   31 2
    50   30   32 am
    51   32   33 1
    52   32   55 1
    53   33   38 ar
    54   33   34 ar
    55   34   35 ar
    56   34   56 1
    57   35   36 ar
    58   35   57 1
    59   36   37 ar
    60   36   58 1
    61   37   38 ar
    62   37   39 1
    63   38   59 1
    64   39   40 2
    65   39   41 1
@<TRIPOS>MOLECULE
CHEMBL380317
   90    93     0     0     0
SMALL
USER_CHARGES

@<TRIPOS>ATOM
      1 C1         -0.0187    1.5258    0.0104 C.3       1 <0>        -0.1613
      2 C2          0.0021   -0.0041    0.0020 C.3       1 <0>         0.1271
      3 H1          0.5293   -0.3651    0.8851 H         1 <0>         0.1184
      4 C3         -1.4117   -0.5257    0.0127 C.2       1 <0>         0.5160
      5 O1         -1.8076   -1.2234   -0.8969 O.2       1 <0>        -0.5246
      6 N1         -2.2363   -0.2169    1.0331 N.am      1 <0>        -0.7028
      7 C4         -3.6107   -0.7239    1.0435 C.3       1 <0>         0.1270
      8 H2         -3.9923   -0.7602    0.0232 H         1 <0>         0.1192
      9 C5         -3.6309   -2.1303    1.6458 C.3       1 <0>        -0.1232
     10 C6         -2.8539   -3.0853    0.7375 C.3       1 <0>        -0.0903
     11 C7         -2.7675   -4.4619    1.3997 C.3       1 <0>        -0.1494
     12 C8         -3.5744   -3.2102   -0.6065 C.3       1 <0>        -0.1403
     13 C9         -4.4769    0.1897    1.8717 C.2       1 <0>         0.5149
     14 O2         -3.9938    1.1681    2.4011 O.2       1 <0>        -0.5318
     15 N2         -5.7885   -0.0804    2.0240 N.am      1 <0>        -0.7161
     16 C10        -6.6306    0.8078    2.8291 C.3       1 <0>         0.1560
     17 H3         -6.2945    1.8373    2.7060 H         1 <0>         0.0933
     18 C11        -6.5278    0.4105    4.3031 C.3       1 <0>        -0.1292
     19 C12        -7.4073    1.3381    5.1439 C.3       1 <0>        -0.1186
     20 C13        -8.8614    1.2178    4.6835 C.3       1 <0>        -0.1229
     21 C14        -8.9643    1.6151    3.2096 C.3       1 <0>        -0.1078
     22 C15        -8.0848    0.6875    2.3688 C.3       1 <0>        -0.0548
     23 H4         -8.4209   -0.3421    2.4919 H         1 <0>         0.0880
     24 C16        -8.1861    1.0788    0.9170 C.ar      1 <0>        -0.0638
     25 C17        -7.8071    2.3462    0.5147 C.ar      1 <0>        -0.1065
     26 C18        -7.8998    2.7058   -0.8166 C.ar      1 <0>        -0.1023
     27 C19        -8.3719    1.7986   -1.7467 C.ar      1 <0>        -0.1137
     28 C20        -8.7512    0.5305   -1.3448 C.ar      1 <0>        -0.0306
     29 C21        -8.6525    0.1690   -0.0127 C.ar      1 <0>        -0.1098
     30 Cl1        -9.3441   -0.6094   -2.5122 Cl        1 <0>        -0.0678
     31 N3          0.6878   -0.4765   -1.2033 N.am      1 <0>        -0.7071
     32 C22         2.0310   -0.5870   -1.2149 C.2       1 <0>         0.5593
     33 O3          2.6734   -0.2946   -0.2254 O.2       1 <0>        -0.5286
     34 C23         2.7230   -1.0638   -2.4313 C.ar      1 <0>        -0.1276
     35 C24         1.9887   -1.3948   -3.5712 C.ar      1 <0>        -0.0799
     36 C25         2.6406   -1.8387   -4.7031 C.ar      1 <0>        -0.1275
     37 C26         4.0192   -1.9564   -4.7099 C.ar      1 <0>        -0.0684
     38 C27         4.7530   -1.6303   -3.5831 C.ar      1 <0>        -0.1220
     39 C28         4.1139   -1.1793   -2.4467 C.ar      1 <0>        -0.0523
     40 C29         4.7245   -2.4423   -5.9497 C.3       1 <0>        -0.0788
     41 C30         5.0771   -1.2472   -6.8375 C.3       1 <0>        -0.0958
     42 C31         3.7907   -0.5898   -7.3459 C.3       1 <0>        -0.1495
     43 C32         4.1502    0.5546   -8.2959 C.3       1 <0>        -0.0074
     44 N4          4.9154    0.0293   -9.4330 N.4       1 <0>        -0.5056
     45 C33         6.1837   -0.5385   -8.9601 C.3       1 <0>        -0.0070
     46 C34         5.9024   -1.7250   -8.0357 C.3       1 <0>        -0.1450
     47 H5          1.0039    1.9031    0.0027 H         1 <0>         0.0762
     48 H6         -0.5459    1.8868   -0.8726 H         1 <0>         0.0645
     49 H7         -0.5289    1.8773    0.9072 H         1 <0>         0.0778
     50 H8         -1.9197    0.3412    1.7606 H         1 <0>         0.4132
     51 H9         -3.1677   -2.1097    2.6323 H         1 <0>         0.0731
     52 H10        -4.6619   -2.4723    1.7356 H         1 <0>         0.0779
     53 H11        -1.8487   -2.6961    0.5760 H         1 <0>         0.0748
     54 H12        -3.7728   -4.8511    1.5611 H         1 <0>         0.0545
     55 H13        -2.2140   -5.1423    0.7525 H         1 <0>         0.0546
     56 H14        -2.2542   -4.3729    2.3571 H         1 <0>         0.0517
     57 H15        -3.6360   -2.2295   -1.0782 H         1 <0>         0.0701
     58 H16        -3.0209   -3.8906   -1.2536 H         1 <0>         0.0496
     59 H17        -4.5797   -3.5994   -0.4450 H         1 <0>         0.0438
     60 H18        -6.1749   -0.8629    1.6006 H         1 <0>         0.4016
     61 H19        -6.8639   -0.6191    4.4262 H         1 <0>         0.0667
     62 H20        -5.4918    0.4961    4.6310 H         1 <0>         0.0706
     63 H21        -7.3340    1.0550    6.1939 H         1 <0>         0.0687
     64 H22        -7.0712    2.3676    5.0208 H         1 <0>         0.0656
     65 H23        -9.1975    0.1882    4.8067 H         1 <0>         0.0656
     66 H24        -9.4880    1.8786    5.2826 H         1 <0>         0.0695
     67 H25       -10.0002    1.5294    2.8817 H         1 <0>         0.0728
     68 H26        -8.6282    2.6446    3.0865 H         1 <0>         0.0692
     69 H27        -7.4389    3.0555    1.2411 H         1 <0>         0.1269
     70 H28        -7.6036    3.6959   -1.1303 H         1 <0>         0.1317
     71 H29        -8.4449    2.0800   -2.7869 H         1 <0>         0.1322
     72 H30        -8.9443   -0.8224    0.3009 H         1 <0>         0.1325
     73 H31         0.1751   -0.7099   -1.9930 H         1 <0>         0.4088
     74 H32         0.9125   -1.3041   -3.5670 H         1 <0>         0.1299
     75 H33         2.0736   -2.0952   -5.5858 H         1 <0>         0.1275
     76 H34         5.8288   -1.7247   -3.5948 H         1 <0>         0.1308
     77 H35         4.6882   -0.9204   -1.5694 H         1 <0>         0.1402
     78 H36         5.6374   -2.9664   -5.6666 H         1 <0>         0.0870
     79 H37         4.0707   -3.1213   -6.4972 H         1 <0>         0.0819
     80 H38         5.6547   -0.5236   -6.2623 H         1 <0>         0.0926
     81 H39         3.1898   -1.3283   -7.8766 H         1 <0>         0.0903
     82 H40         3.2241   -0.1975   -6.5014 H         1 <0>         0.1155
     83 H41         3.2366    1.0249   -8.6595 H         1 <0>         0.1331
     84 H42         4.7509    1.2926   -7.7641 H         1 <0>         0.1301
     85 H43         4.3783   -0.6887   -9.8956 H         1 <0>         0.4277
     86 H44         6.7713   -0.8752   -9.8142 H         1 <0>         0.1336
     87 H45         6.7410    0.2227   -8.4142 H         1 <0>         0.1304
     88 H46         6.8453   -2.1441   -7.6843 H         1 <0>         0.1138
     89 H47         5.3453   -2.4870   -8.5807 H         1 <0>         0.0905
     90 H48         5.1047    0.7768  -10.0838 H         1 <0>         0.4318
@<TRIPOS>BOND
     1    1    2 1
     2    1   47 1
     3    1   48 1
     4    1   49 1
     5    2    3 1
     6    2    4 1
     7    2   31 1
     8    4    5 2
     9    4    6 am
    10    6    7 1
    11    6   50 1
    12    7    8 1
    13    7    9 1
    14    7   13 1
    15    9   10 1
    16    9   51 1
    17    9   52 1
    18   10   11 1
    19   10   12 1
    20   10   53 1
    21   11   54 1
    22   11   55 1
    23   11   56 1
    24   12   57 1
    25   12   58 1
    26   12   59 1
    27   13   14 2
    28   13   15 am
    29   15   16 1
    30   15   60 1
    31   16   17 1
    32   16   22 1
    33   16   18 1
    34   18   19 1
    35   18   61 1
    36   18   62 1
    37   19   20 1
    38   19   63 1
    39   19   64 1
    40   20   21 1
    41   20   65 1
    42   20   66 1
    43   21   22 1
    44   21   67 1
    45   21   68 1
    46   22   23 1
    47   22   24 1
    48   24   29 ar
    49   24   25 ar
    50   25   26 ar
    51   25   69 1
    52   26   27 ar
    53   26   70 1
    54   27   28 ar
    55   27   71 1
    56   28   29 ar
    57   28   30 1
    58   29   72 1
    59   31   32 am
    60   31   73 1
    61   32   33 2
    62   32   34 1
    63   34   39 ar
    64   34   35 ar
    65   35   36 ar
    66   35   74 1
    67   36   37 ar
    68   36   75 1
    69   37   38 ar
    70   37   40 1
    71   38   39 ar
    72   38   76 1
    73   39   77 1
    74   40   41 1
    75   40   78 1
    76   40   79 1
    77   41   46 1
    78   41   42 1
    79   41   80 1
    80   42   43 1
    81   42   81 1
    82   42   82 1
    83   43   44 1
    84   43   83 1
    85   43   84 1
    86   44   45 1
    87   44   85 1
    88   44   90 1
    89   45   46 1
    90   45   86 1
    91   45   87 1
    92   46   88 1
    93   46   89 1
@<TRIPOS>MOLECULE
CHEMBL346184
   60    64     0     0     0
SMALL
USER_CHARGES

@<TRIPOS>ATOM
      1 C1          0.0274    1.4353   -0.0084 C.3       1 <0>         0.0225
      2 O1          0.0372    0.0064   -0.0129 O.3       1 <0>        -0.3105
      3 C2          0.6381   -0.6027   -1.0673 C.ar      1 <0>         0.1572
      4 C3          1.2121    0.1632   -2.0747 C.ar      1 <0>        -0.2097
      5 C4          1.8231   -0.4504   -3.1459 C.ar      1 <0>        -0.0483
      6 C5          1.8653   -1.8456   -3.2186 C.ar      1 <0>        -0.1105
      7 C6          1.2867   -2.6120   -2.2031 C.ar      1 <0>        -0.0247
      8 C7          0.6824   -1.9900   -1.1329 C.ar      1 <0>        -0.1518
      9 C8          2.5182   -2.5072   -4.3641 C.2       1 <0>         0.2560
     10 C9          2.0181   -3.5797   -5.0900 C.2       1 <0>        -0.3415
     11 C10         3.0118   -3.8855   -6.1224 C.2       1 <0>         0.1187
     12 N1          3.9989   -3.0365   -5.9772 N.2       1 <0>        -0.2241
     13 N2          3.7217   -2.1757   -4.9106 N.pl3     1 <0>        -0.4608
     14 H1          4.2970   -1.4566   -4.6061 H         1 <0>         0.4521
     15 C11         2.4975   -5.0319   -6.9122 C.ar      1 <0>         0.0473
     16 C12         3.0302   -5.7184   -7.9961 C.ar      1 <0>        -0.0902
     17 C13         2.3357   -6.7738   -8.5635 C.ar      1 <0>        -0.0635
     18 C14         1.1090   -7.1566   -8.0606 C.ar      1 <0>        -0.1162
     19 C15         0.5561   -6.4842   -6.9758 C.ar      1 <0>         0.1930
     20 C16         1.2484   -5.4147   -6.3933 C.ar      1 <0>        -0.1715
     21 C17         0.9133   -4.5337   -5.2562 C.2       1 <0>         0.4948
     22 O2         -0.0956   -4.5887   -4.5785 O.2       1 <0>        -0.4474
     23 N3         -0.6820   -6.8723   -6.4710 N.am      1 <0>        -0.6399
     24 C18        -1.6371   -7.3282   -7.3055 C.2       1 <0>         0.5042
     25 O3         -1.3919   -7.4779   -8.4837 O.2       1 <0>        -0.5066
     26 C19        -3.0098   -7.6520   -6.7744 C.3       1 <0>        -0.0296
     27 N4         -3.8608   -8.1263   -7.8738 N.4       1 <0>        -0.3716
     28 C20        -4.0561   -7.0411   -8.8427 C.3       1 <0>        -0.0195
     29 C21        -4.8744   -7.5533  -10.0299 C.3       1 <0>        -0.1235
     30 C22        -6.2360   -8.0448   -9.5302 C.3       1 <0>        -0.1251
     31 C23        -6.0189   -9.1244   -8.4661 C.3       1 <0>        -0.1390
     32 C24        -5.1582   -8.5540   -7.3368 C.3       1 <0>        -0.0039
     33 C25        -7.0170   -8.6226  -10.6823 C.2       1 <0>         0.5198
     34 O4         -6.5335   -8.6403  -11.7944 O.2       1 <0>        -0.5266
     35 N5         -8.2528   -9.1196  -10.4768 N.am      1 <0>        -0.8500
     36 H2          1.0525    1.8057   -0.0153 H         1 <0>         0.0606
     37 H3         -0.4959    1.7979   -0.8932 H         1 <0>         0.0598
     38 H4         -0.4820    1.7924    0.8867 H         1 <0>         0.1069
     39 H5          1.1787    1.2412   -2.0179 H         1 <0>         0.1390
     40 H6          2.2687    0.1456   -3.9286 H         1 <0>         0.1300
     41 H7          1.3170   -3.6903   -2.2553 H         1 <0>         0.1365
     42 H8          0.2389   -2.5814   -0.3455 H         1 <0>         0.1418
     43 H9          3.9895   -5.4277   -8.3980 H         1 <0>         0.1454
     44 H10         2.7575   -7.3013   -9.4063 H         1 <0>         0.1483
     45 H11         0.5761   -7.9808   -8.5112 H         1 <0>         0.1529
     46 H12        -0.8571   -6.8147   -5.5187 H         1 <0>         0.4283
     47 H13        -2.9313   -8.4293   -6.0143 H         1 <0>         0.1668
     48 H14        -3.4497   -6.7569   -6.3346 H         1 <0>         0.1666
     49 H15        -4.5871   -6.2184   -8.3639 H         1 <0>         0.1290
     50 H16        -3.0861   -6.6902   -9.1949 H         1 <0>         0.1520
     51 H17        -5.0198   -6.7456  -10.7472 H         1 <0>         0.1205
     52 H18        -4.3442   -8.3760  -10.5096 H         1 <0>         0.0997
     53 H19        -6.7877   -7.2109   -9.0962 H         1 <0>         0.1177
     54 H20        -6.9824   -9.4398   -8.0656 H         1 <0>         0.1197
     55 H21        -5.5124   -9.9797   -8.9134 H         1 <0>         0.0976
     56 H22        -5.0018   -9.3201   -6.5773 H         1 <0>         0.1391
     57 H23        -5.6657   -7.6991   -6.8901 H         1 <0>         0.1361
     58 H24        -8.6395   -9.1055   -9.5873 H         1 <0>         0.4029
     59 H25        -8.7555   -9.4915  -11.2183 H         1 <0>         0.4117
     60 H26        -3.4136   -8.9066   -8.3314 H         1 <0>         0.4312
@<TRIPOS>BOND
     1    1    2 1
     2    1   36 1
     3    1   37 1
     4    1   38 1
     5    2    3 1
     6    3    8 ar
     7    3    4 ar
     8    4    5 ar
     9    4   39 1
    10    5    6 ar
    11    5   40 1
    12    6    7 ar
    13    6    9 1
    14    7    8 ar
    15    7   41 1
    16    8   42 1
    17    9   13 1
    18    9   10 2
    19   10   21 1
    20   10   11 1
    21   11   12 2
    22   11   15 1
    23   12   13 1
    24   13   14 1
    25   15   20 ar
    26   15   16 ar
    27   16   17 ar
    28   16   43 1
    29   17   18 ar
    30   17   44 1
    31   18   19 ar
    32   18   45 1
    33   19   20 ar
    34   19   23 1
    35   20   21 1
    36   21   22 2
    37   23   24 am
    38   23   46 1
    39   24   25 2
    40   24   26 1
    41   26   27 1
    42   26   47 1
    43   26   48 1
    44   27   32 1
    45   27   28 1
    46   27   60 1
    47   28   29 1
    48   28   49 1
    49   28   50 1
    50   29   30 1
    51   29   51 1
    52   29   52 1
    53   30   31 1
    54   30   33 1
    55   30   53 1
    56   31   32 1
    57   31   54 1
    58   31   55 1
    59   32   56 1
    60   32   57 1
    61   33   34 2
    62   33   35 am
    63   35   58 1
    64   35   59 1
@<TRIPOS>MOLECULE
CHEMBL346184
   60    64     0     0     0
SMALL
USER_CHARGES

@<TRIPOS>ATOM
      1 C1         -0.0073    1.4424   -0.0281 C.3       1 <0>         0.0236
      2 O1          0.0075    0.0135   -0.0356 O.3       1 <0>        -0.3138
      3 C2          0.6163   -0.5916   -1.0886 C.ar      1 <0>         0.1492
      4 C3          1.1926    0.1774   -2.0909 C.ar      1 <0>        -0.2120
      5 C4          1.8117   -0.4335   -3.1607 C.ar      1 <0>        -0.0390
      6 C5          1.8586   -1.8253   -3.2354 C.ar      1 <0>        -0.0801
      7 C6          1.2788   -2.5947   -2.2271 C.ar      1 <0>        -0.0356
      8 C7          0.6659   -1.9776   -1.1573 C.ar      1 <0>        -0.1546
      9 C8          2.5228   -2.4854   -4.3842 C.2       1 <0>         0.2067
     10 C9          3.2580   -3.6940   -4.3395 C.2       1 <0>        -0.3151
     11 C10         3.7058   -3.9522   -5.6283 C.2       1 <0>         0.1513
     12 N1          3.2631   -2.9481   -6.4156 N.pl3     1 <0>        -0.4175
     13 N2          2.5288   -2.0543   -5.6284 N.2       1 <0>        -0.2626
     14 H1          3.4244   -2.8627   -7.3683 H         1 <0>         0.4500
     15 C11         4.4834   -5.2146   -5.6225 C.ar      1 <0>         0.0159
     16 C12         5.1370   -5.9075   -6.6308 C.ar      1 <0>        -0.0926
     17 C13         5.8042   -7.0918   -6.3451 C.ar      1 <0>        -0.0641
     18 C14         5.8255   -7.5918   -5.0623 C.ar      1 <0>        -0.1125
     19 C15         5.1737   -6.9099   -4.0322 C.ar      1 <0>         0.1986
     20 C16         4.5013   -5.7203   -4.3093 C.ar      1 <0>        -0.1711
     21 C17         3.7321   -4.7822   -3.4606 C.2       1 <0>         0.4872
     22 O2          3.5301   -4.8871   -2.2669 O.2       1 <0>        -0.4325
     23 N3          5.1952   -7.4151   -2.7363 N.am      1 <0>        -0.6411
     24 C18         5.1765   -8.7472   -2.5319 C.2       1 <0>         0.5055
     25 O3          5.2233   -9.5063   -3.4765 O.2       1 <0>        -0.5057
     26 C19         5.0976   -9.2933   -1.1296 C.3       1 <0>        -0.0296
     27 N4          5.0916  -10.7616   -1.1755 N.4       1 <0>        -0.3717
     28 C20         3.8727  -11.2236   -1.8503 C.3       1 <0>        -0.0195
     29 C21         3.8999  -12.7486   -1.9730 C.3       1 <0>        -0.1235
     30 C22         3.9761  -13.3665   -0.5739 C.3       1 <0>        -0.1251
     31 C23         5.2112  -12.8203    0.1481 C.3       1 <0>        -0.1391
     32 C24         5.1354  -11.2926    0.1922 C.3       1 <0>        -0.0040
     33 C25         4.0820  -14.8653   -0.6900 C.2       1 <0>         0.5198
     34 O4          4.0954  -15.3894   -1.7837 O.2       1 <0>        -0.5269
     35 N5          4.1619  -15.6234    0.4215 N.am      1 <0>        -0.8498
     36 H2          1.0165    1.8163   -0.0289 H         1 <0>         0.0589
     37 H3         -0.5272    1.8050   -0.9149 H         1 <0>         0.0595
     38 H4         -0.5226    1.7958    0.8650 H         1 <0>         0.1046
     39 H5          1.1556    1.2552   -2.0327 H         1 <0>         0.1362
     40 H6          2.2595    0.1651   -3.9402 H         1 <0>         0.1325
     41 H7          1.3132   -3.6728   -2.2822 H         1 <0>         0.1328
     42 H8          0.2203   -2.5728   -0.3740 H         1 <0>         0.1372
     43 H9          5.1269   -5.5252   -7.6409 H         1 <0>         0.1428
     44 H10         6.3103   -7.6253   -7.1361 H         1 <0>         0.1493
     45 H11         6.3472   -8.5138   -4.8521 H         1 <0>         0.1545
     46 H12         5.2237   -6.8087   -1.9798 H         1 <0>         0.4294
     47 H13         5.9599   -8.9512   -0.5573 H         1 <0>         0.1675
     48 H14         4.1825   -8.9410   -0.6535 H         1 <0>         0.1676
     49 H15         3.0004  -10.9216   -1.2707 H         1 <0>         0.1295
     50 H16         3.8183  -10.7804   -2.8447 H         1 <0>         0.1514
     51 H17         2.9933  -13.0898   -2.4727 H         1 <0>         0.1207
     52 H18         4.7718  -13.0516   -2.5527 H         1 <0>         0.0995
     53 H19         3.0798  -13.1058   -0.0110 H         1 <0>         0.1180
     54 H20         5.2418  -13.2126    1.1646 H         1 <0>         0.1200
     55 H21         6.1103  -13.1248   -0.3875 H         1 <0>         0.0976
     56 H22         6.0132  -10.9004    0.7058 H         1 <0>         0.1393
     57 H23         4.2362  -10.9892    0.7283 H         1 <0>         0.1366
     58 H24         4.1512  -15.2042    1.2962 H         1 <0>         0.4030
     59 H25         4.2301  -16.5881    0.3468 H         1 <0>         0.4119
     60 H26         5.8995  -11.0844   -1.6866 H         1 <0>         0.4311
@<TRIPOS>BOND
     1    1    2 1
     2    1   36 1
     3    1   37 1
     4    1   38 1
     5    2    3 1
     6    3    8 ar
     7    3    4 ar
     8    4    5 ar
     9    4   39 1
    10    5    6 ar
    11    5   40 1
    12    6    7 ar
    13    6    9 1
    14    7    8 ar
    15    7   41 1
    16    8   42 1
    17    9   10 1
    18    9   13 2
    19   10   21 1
    20   10   11 2
    21   11   15 1
    22   11   12 1
    23   12   14 1
    24   12   13 1
    25   15   20 ar
    26   15   16 ar
    27   16   17 ar
    28   16   43 1
    29   17   18 ar
    30   17   44 1
    31   18   19 ar
    32   18   45 1
    33   19   20 ar
    34   19   23 1
    35   20   21 1
    36   21   22 2
    37   23   24 am
    38   23   46 1
    39   24   25 2
    40   24   26 1
    41   26   27 1
    42   26   47 1
    43   26   48 1
    44   27   32 1
    45   27   28 1
    46   27   60 1
    47   28   29 1
    48   28   49 1
    49   28   50 1
    50   29   30 1
    51   29   51 1
    52   29   52 1
    53   30   31 1
    54   30   33 1
    55   30   53 1
    56   31   32 1
    57   31   54 1
    58   31   55 1
    59   32   56 1
    60   32   57 1
    61   33   34 2
    62   33   35 am
    63   35   58 1
    64   35   59 1
@<TRIPOS>MOLECULE
CHEMBL1084630
   52    55     0     0     0
SMALL
USER_CHARGES

@<TRIPOS>ATOM
      1 C1          1.1127    1.4935    0.5115 C.3       1 <0>        -0.1679
      2 C2          1.0420   -0.0341    0.4614 C.3       1 <0>         0.1252
      3 N1          1.4344   -0.4976   -0.8718 N.pl3     1 <0>        -0.6719
      4 C3          1.4474   -1.8497   -1.1571 C.2       1 <0>         0.3316
      5 N2          1.1352   -2.8563   -0.3636 N.2       1 <0>        -0.5929
      6 C4          1.1969   -4.1003   -0.7827 C.2       1 <0>         0.1884
      7 C5          1.6002   -4.2950   -2.0794 C.2       1 <0>        -0.2519
      8 S1          1.8584   -2.6073   -2.6026 S.3       1 <0>         0.1212
      9 C6          1.7685   -5.5496   -2.8337 C.ar      1 <0>         0.3319
     10 C7          2.2023   -5.5268   -4.1670 C.ar      1 <0>        -0.2850
     11 C8          2.3449   -6.7281   -4.8324 C.ar      1 <0>         0.1970
     12 N3          2.0702   -7.8586   -4.1976 N.ar      1 <0>        -0.5655
     13 C9          1.6616   -7.8530   -2.9368 C.ar      1 <0>         0.5716
     14 N4          1.5158   -6.7263   -2.2575 N.ar      1 <0>        -0.5633
     15 N5          1.3851   -9.0577   -2.3121 N.pl3     1 <0>        -0.6366
     16 C10         1.6501  -10.2654   -2.9709 C.ar      1 <0>         0.1070
     17 C11         2.7857  -10.3912   -3.7600 C.ar      1 <0>        -0.0561
     18 C12         3.0471  -11.5815   -4.4090 C.ar      1 <0>        -0.1795
     19 C13         2.1743  -12.6530   -4.2724 C.ar      1 <0>         0.2067
     20 C14         1.0385  -12.5272   -3.4832 C.ar      1 <0>        -0.1793
     21 C15         0.7800  -11.3384   -2.8301 C.ar      1 <0>        -0.0927
     22 N6          2.4389  -13.8595   -4.9306 N.pl3     1 <0>        -0.6348
     23 C16         1.4688  -14.9656   -4.9039 C.3       1 <0>         0.0877
     24 C17         1.2361  -15.4394   -6.3431 C.3       1 <0>         0.0453
     25 O1          2.4971  -15.7156   -6.9574 O.3       1 <0>        -0.3798
     26 C18         3.3542  -14.5771   -7.0720 C.3       1 <0>         0.0452
     27 C19         3.6929  -14.0571   -5.6748 C.3       1 <0>         0.0869
     28 C20         0.8425   -5.2562    0.1170 C.3       1 <0>        -0.0863
     29 H1          2.1317    1.8172    0.2997 H         1 <0>         0.0642
     30 H2          0.4360    1.9131   -0.2328 H         1 <0>         0.0642
     31 H3          0.8207    1.8384    1.5035 H         1 <0>         0.0807
     32 H4          1.7187   -0.4537    1.2058 H         1 <0>         0.0717
     33 H5          0.0229   -0.3578    0.6733 H         1 <0>         0.0717
     34 H6          1.6850    0.1445   -1.5542 H         1 <0>         0.4201
     35 H7          2.4194   -4.5917   -4.6618 H         1 <0>         0.1406
     36 H8          2.6767   -6.7464   -5.8600 H         1 <0>         0.1698
     37 H9          1.0081   -9.0653   -1.4184 H         1 <0>         0.4207
     38 H10         3.4643   -9.5578   -3.8664 H         1 <0>         0.1284
     39 H11         3.9302  -11.6792   -5.0230 H         1 <0>         0.1240
     40 H12         0.3597  -13.3604   -3.3770 H         1 <0>         0.1250
     41 H13        -0.1009  -11.2420   -2.2127 H         1 <0>         0.1241
     42 H14         1.8648  -15.7868   -4.3065 H         1 <0>         0.0699
     43 H15         0.5286  -14.6190   -4.4749 H         1 <0>         0.0920
     44 H16         0.6291  -16.3447   -6.3346 H         1 <0>         0.1046
     45 H17         0.7207  -14.6599   -6.9041 H         1 <0>         0.0558
     46 H18         4.2710  -14.8621   -7.5879 H         1 <0>         0.1048
     47 H19         2.8465  -13.7945   -7.6357 H         1 <0>         0.0556
     48 H20         4.2248  -13.1092   -5.7561 H         1 <0>         0.0929
     49 H21         4.3166  -14.7853   -5.1564 H         1 <0>         0.0698
     50 H22        -0.2203   -5.4784    0.0214 H         1 <0>         0.0777
     51 H23         1.4241   -6.1320   -0.1705 H         1 <0>         0.1001
     52 H24         1.0673   -4.9941    1.1509 H         1 <0>         0.0695
@<TRIPOS>BOND
     1    1    2 1
     2    1   29 1
     3    1   30 1
     4    1   31 1
     5    2    3 1
     6    2   32 1
     7    2   33 1
     8    3    4 1
     9    3   34 1
    10    4    8 1
    11    4    5 2
    12    5    6 1
    13    6    7 2
    14    6   28 1
    15    7    8 1
    16    7    9 1
    17    9   14 ar
    18    9   10 ar
    19   10   11 ar
    20   10   35 1
    21   11   12 ar
    22   11   36 1
    23   12   13 ar
    24   13   14 ar
    25   13   15 1
    26   15   16 1
    27   15   37 1
    28   16   21 ar
    29   16   17 ar
    30   17   18 ar
    31   17   38 1
    32   18   19 ar
    33   18   39 1
    34   19   20 ar
    35   19   22 1
    36   20   21 ar
    37   20   40 1
    38   21   41 1
    39   22   27 1
    40   22   23 1
    41   23   24 1
    42   23   42 1
    43   23   43 1
    44   24   25 1
    45   24   44 1
    46   24   45 1
    47   25   26 1
    48   26   27 1
    49   26   46 1
    50   26   47 1
    51   27   48 1
    52   27   49 1
    53   28   50 1
    54   28   51 1
    55   28   52 1
@<TRIPOS>MOLECULE
CHEMBL574738
   69    72     0     0     0
SMALL
USER_CHARGES

@<TRIPOS>ATOM
      1 C1         -1.8363    1.8103   -1.4722 C.3       1 <0>        -0.1886
      2 C2         -1.6365    0.2944   -1.4178 C.3       1 <0>        -0.0094
      3 N1         -2.9083   -0.3550   -1.0733 N.4       1 <0>        -0.3871
      4 C3         -3.3047    0.0354    0.2861 C.3       1 <0>        -0.0052
      5 C4         -4.6389   -0.6260    0.6384 C.3       1 <0>         0.0283
      6 N2         -4.4966   -2.0863    0.5514 N.3       1 <0>        -0.5297
      7 C5         -4.0759   -2.4902   -0.7977 C.3       1 <0>         0.0223
      8 C6         -2.7463   -1.8135   -1.1381 C.3       1 <0>        -0.0008
      9 C7         -5.7431   -2.7606    0.9381 C.3       1 <0>         0.0809
     10 C8         -5.4922   -4.2403    1.0747 C.ar      1 <0>        -0.0649
     11 C9         -5.8432   -5.0974    0.0476 C.ar      1 <0>        -0.0933
     12 C10        -5.6142   -6.4537    0.1696 C.ar      1 <0>        -0.0875
     13 C11        -5.0308   -6.9569    1.3252 C.ar      1 <0>         0.1812
     14 C12        -4.6796   -6.0937    2.3545 C.ar      1 <0>        -0.1024
     15 C13        -4.9064   -4.7374    2.2242 C.ar      1 <0>        -0.1362
     16 C14        -4.5199   -3.7991    3.3383 C.3       1 <0>         0.5103
     17 F1         -3.9503   -4.5296    4.3867 F         1 <0>        -0.1764
     18 F2         -3.5923   -2.8665    2.8619 F         1 <0>        -0.1629
     19 F3         -5.6583   -3.1301    3.8007 F         1 <0>        -0.1766
     20 N3         -4.7978   -8.3308    1.4521 N.am      1 <0>        -0.6826
     21 C15        -4.4882   -9.0650    0.3651 C.2       1 <0>         0.7088
     22 O1         -4.3176   -8.5199   -0.7083 O.2       1 <0>        -0.5536
     23 N4         -4.3676  -10.4034    0.4679 N.am      1 <0>        -0.6758
     24 C16        -3.9415  -11.1553   -0.6351 C.ar      1 <0>         0.1613
     25 C17        -3.0319  -10.6150   -1.5342 C.ar      1 <0>        -0.1044
     26 C18        -2.6123  -11.3563   -2.6210 C.ar      1 <0>        -0.0920
     27 C19        -3.0999  -12.6406   -2.8148 C.ar      1 <0>         0.0838
     28 C20        -4.0092  -13.1809   -1.9170 C.ar      1 <0>        -0.0898
     29 C21        -4.4244  -12.4429   -0.8262 C.ar      1 <0>        -0.1275
     30 O2         -2.6868  -13.3700   -3.8854 O.3       1 <0>        -0.2419
     31 C22        -1.4475  -13.9171   -3.8425 C.ar      1 <0>         0.3843
     32 C23        -0.9333  -14.5842   -4.9476 C.ar      1 <0>        -0.3092
     33 C24         0.3448  -15.1285   -4.8538 C.ar      1 <0>         0.4598
     34 N5          1.0234  -14.9910   -3.7165 N.ar      1 <0>        -0.5925
     35 C25         0.5000  -14.3508   -2.6911 C.ar      1 <0>         0.3761
     36 N6         -0.7041  -13.8182   -2.7438 N.ar      1 <0>        -0.6017
     37 N7          0.9023  -15.8038   -5.9283 N.pl3     1 <0>        -0.7108
     38 C26         0.1458  -15.9492   -7.1744 C.3       1 <0>         0.0880
     39 H1         -0.8926    2.2922   -1.7278 H         1 <0>         0.1065
     40 H2         -2.5838    2.0514   -2.2280 H         1 <0>         0.0795
     41 H3         -2.1748    2.1673   -0.4995 H         1 <0>         0.0804
     42 H4         -1.2980   -0.0626   -2.3904 H         1 <0>         0.1302
     43 H5         -0.8890    0.0533   -0.6620 H         1 <0>         0.1299
     44 H6         -2.5411   -0.2873    0.9940 H         1 <0>         0.1386
     45 H7         -3.4119    1.1189    0.3362 H         1 <0>         0.1368
     46 H8         -4.9259   -0.3484    1.6526 H         1 <0>         0.1238
     47 H9         -5.4058   -0.2930   -0.0610 H         1 <0>         0.0621
     48 H10        -3.9521   -3.5727   -0.8311 H         1 <0>         0.1246
     49 H11        -4.8335   -2.1879   -1.5207 H         1 <0>         0.0622
     50 H12        -2.4395   -2.1006   -2.1439 H         1 <0>         0.1352
     51 H13        -1.9856   -2.1267   -0.4230 H         1 <0>         0.1378
     52 H14        -6.0916   -2.3617    1.8908 H         1 <0>         0.1056
     53 H15        -6.5010   -2.5896    0.1736 H         1 <0>         0.0665
     54 H16        -6.2972   -4.7056   -0.8506 H         1 <0>         0.1368
     55 H17        -5.8888   -7.1226   -0.6327 H         1 <0>         0.1503
     56 H18        -4.2257   -6.4819    3.2544 H         1 <0>         0.1458
     57 H19        -4.8592   -8.7548    2.3223 H         1 <0>         0.4154
     58 H20        -4.5758  -10.8463    1.3054 H         1 <0>         0.4130
     59 H21        -2.6528   -9.6149   -1.3838 H         1 <0>         0.1404
     60 H22        -1.9048  -10.9362   -3.3205 H         1 <0>         0.1293
     61 H23        -4.3889  -14.1804   -2.0687 H         1 <0>         0.1369
     62 H24        -5.1283  -12.8655   -0.1245 H         1 <0>         0.1361
     63 H25        -1.5103  -14.6785   -5.8557 H         1 <0>         0.1488
     64 H26         1.0758  -14.2566   -1.7822 H         1 <0>         0.2008
     65 H27         1.7933  -16.1802   -5.8551 H         1 <0>         0.4136
     66 H28         0.7419  -16.5046   -7.8986 H         1 <0>         0.0865
     67 H29        -0.7804  -16.4886   -6.9763 H         1 <0>         0.0628
     68 H30        -0.0868  -14.9627   -7.5754 H         1 <0>         0.0620
     69 H31        -3.6209   -0.0666   -1.7269 H         1 <0>         0.4195
@<TRIPOS>BOND
     1    1    2 1
     2    1   39 1
     3    1   40 1
     4    1   41 1
     5    2    3 1
     6    2   42 1
     7    2   43 1
     8    3    8 1
     9    3    4 1
    10    3   69 1
    11    4    5 1
    12    4   44 1
    13    4   45 1
    14    5    6 1
    15    5   46 1
    16    5   47 1
    17    6    7 1
    18    6    9 1
    19    7    8 1
    20    7   48 1
    21    7   49 1
    22    8   50 1
    23    8   51 1
    24    9   10 1
    25    9   52 1
    26    9   53 1
    27   10   15 ar
    28   10   11 ar
    29   11   12 ar
    30   11   54 1
    31   12   13 ar
    32   12   55 1
    33   13   14 ar
    34   13   20 1
    35   14   15 ar
    36   14   56 1
    37   15   16 1
    38   16   17 1
    39   16   18 1
    40   16   19 1
    41   20   21 am
    42   20   57 1
    43   21   22 2
    44   21   23 am
    45   23   24 1
    46   23   58 1
    47   24   29 ar
    48   24   25 ar
    49   25   26 ar
    50   25   59 1
    51   26   27 ar
    52   26   60 1
    53   27   28 ar
    54   27   30 1
    55   28   29 ar
    56   28   61 1
    57   29   62 1
    58   30   31 1
    59   31   36 ar
    60   31   32 ar
    61   32   33 ar
    62   32   63 1
    63   33   34 ar
    64   33   37 1
    65   34   35 ar
    66   35   36 ar
    67   35   64 1
    68   37   38 1
    69   37   65 1
    70   38   66 1
    71   38   67 1
    72   38   68 1
@<TRIPOS>MOLECULE
CHEMBL574738
   69    72     0     0     0
SMALL
USER_CHARGES

@<TRIPOS>ATOM
      1 C1          0.0759    1.5438    0.6037 C.3       1 <0>        -0.1550
      2 C2          0.0819    0.0240    0.4269 C.3       1 <0>         0.0497
      3 N1         -1.3011   -0.4668    0.3613 N.3       1 <0>        -0.5383
      4 C3         -1.9905   -0.2720    1.6446 C.3       1 <0>         0.0216
      5 C4         -3.4418   -0.7401    1.5167 C.3       1 <0>        -0.0034
      6 N2         -3.4673   -2.1590    1.1380 N.4       1 <0>        -0.3925
      7 C5         -2.7968   -2.3340   -0.1571 C.3       1 <0>        -0.0069
      8 C6         -1.3401   -1.8792   -0.0432 C.3       1 <0>         0.0266
      9 C7         -4.8606   -2.6126    1.0329 C.3       1 <0>         0.0216
     10 C8         -4.8877   -4.0989    0.7859 C.ar      1 <0>        -0.1314
     11 C9         -5.0212   -4.5819   -0.5031 C.ar      1 <0>        -0.0646
     12 C10        -5.0460   -5.9433   -0.7329 C.ar      1 <0>        -0.0851
     13 C11        -4.9367   -6.8279    0.3323 C.ar      1 <0>         0.2104
     14 C12        -4.8028   -6.3399    1.6253 C.ar      1 <0>        -0.0958
     15 C13        -4.7734   -4.9769    1.8479 C.ar      1 <0>        -0.1409
     16 C14        -4.6219   -4.4463    3.2502 C.3       1 <0>         0.5070
     17 F1         -4.6433   -5.5117    4.1567 F         1 <0>        -0.1547
     18 F2         -3.4060   -3.7635    3.3616 F         1 <0>        -0.1851
     19 F3         -5.6759   -3.5713    3.5341 F         1 <0>        -0.1640
     20 N3         -4.9619   -8.2081    0.1029 N.am      1 <0>        -0.6837
     21 C15        -4.4196   -8.7143   -1.0223 C.2       1 <0>         0.7086
     22 O1         -3.8266   -7.9843   -1.7931 O.2       1 <0>        -0.5502
     23 N4         -4.5345  -10.0295   -1.2932 N.am      1 <0>        -0.6719
     24 C16        -3.8805  -10.5754   -2.4057 C.ar      1 <0>         0.1552
     25 C17        -2.6449  -10.0782   -2.7980 C.ar      1 <0>        -0.1020
     26 C18        -2.0009  -10.6166   -3.8944 C.ar      1 <0>        -0.0924
     27 C19        -2.5883  -11.6538   -4.6042 C.ar      1 <0>         0.0887
     28 C20        -3.8231  -12.1507   -4.2129 C.ar      1 <0>        -0.0905
     29 C21        -4.4651  -11.6176   -3.1127 C.ar      1 <0>        -0.1241
     30 O2         -1.9539  -12.1832   -5.6840 O.3       1 <0>        -0.2421
     31 C22        -0.8993  -13.0053   -5.4625 C.ar      1 <0>         0.3838
     32 C23        -0.1485  -13.4903   -6.5263 C.ar      1 <0>        -0.3084
     33 C24         0.9254  -14.3313   -6.2467 C.ar      1 <0>         0.4604
     34 N5          1.1921  -14.6382   -4.9788 N.ar      1 <0>        -0.5919
     35 C25         0.4556  -14.1572   -3.9982 C.ar      1 <0>         0.3765
     36 N6         -0.5651  -13.3548   -4.2232 N.ar      1 <0>        -0.6028
     37 N7          1.7048  -14.8418   -7.2729 N.pl3     1 <0>        -0.7101
     38 C26         1.4012  -14.4974   -8.6641 C.3       1 <0>         0.0876
     39 H1          1.1021    1.9080    0.6524 H         1 <0>         0.0710
     40 H2         -0.4339    2.0059   -0.2417 H         1 <0>         0.0692
     41 H3         -0.4448    1.8002    1.5263 H         1 <0>         0.0560
     42 H4          0.6026   -0.2324   -0.4957 H         1 <0>         0.0890
     43 H5          0.5917   -0.4381    1.2723 H         1 <0>         0.0460
     44 H6         -1.4883   -0.8519    2.4189 H         1 <0>         0.0601
     45 H7         -1.9714    0.7847    1.9111 H         1 <0>         0.1280
     46 H8         -3.9511   -0.6097    2.4716 H         1 <0>         0.1352
     47 H9         -3.9476   -0.1508    0.7518 H         1 <0>         0.1417
     48 H10        -2.8278   -3.3853   -0.4432 H         1 <0>         0.1337
     49 H11        -3.3058   -1.7365   -0.9134 H         1 <0>         0.1410
     50 H12        -0.8464   -1.9950   -1.0080 H         1 <0>         0.1252
     51 H13        -0.8272   -2.4856    0.7034 H         1 <0>         0.0590
     52 H14        -5.3865   -2.3888    1.9611 H         1 <0>         0.1450
     53 H15        -5.3489   -2.0978    0.2055 H         1 <0>         0.1515
     54 H16        -5.1065   -3.8935   -1.3309 H         1 <0>         0.1522
     55 H17        -5.1506   -6.3199   -1.7397 H         1 <0>         0.1607
     56 H18        -4.7176   -7.0252    2.4556 H         1 <0>         0.1562
     57 H19        -5.3697   -8.8006    0.7538 H         1 <0>         0.4195
     58 H20        -5.0700  -10.5982   -0.7181 H         1 <0>         0.4141
     59 H21        -2.1878   -9.2703   -2.2459 H         1 <0>         0.1387
     60 H22        -1.0398  -10.2299   -4.1996 H         1 <0>         0.1305
     61 H23        -4.2803  -12.9577   -4.7663 H         1 <0>         0.1381
     62 H24        -5.4240  -12.0080   -2.8052 H         1 <0>         0.1366
     63 H25        -0.3919  -13.2222   -7.5438 H         1 <0>         0.1492
     64 H26         0.6976  -14.4252   -2.9804 H         1 <0>         0.2009
     65 H27         2.4512  -15.4270   -7.0699 H         1 <0>         0.4139
     66 H28         0.3926  -14.8302   -8.9090 H         1 <0>         0.0630
     67 H29         1.4691  -13.4173   -8.7942 H         1 <0>         0.0624
     68 H30         2.1162  -14.9885   -9.3243 H         1 <0>         0.0869
     69 H31        -2.9890   -2.7030    1.8403 H         1 <0>         0.4158
@<TRIPOS>BOND
     1    1    2 1
     2    1   39 1
     3    1   40 1
     4    1   41 1
     5    2    3 1
     6    2   42 1
     7    2   43 1
     8    3    8 1
     9    3    4 1
    10    4    5 1
    11    4   44 1
    12    4   45 1
    13    5    6 1
    14    5   46 1
    15    5   47 1
    16    6    7 1
    17    6    9 1
    18    6   69 1
    19    7    8 1
    20    7   48 1
    21    7   49 1
    22    8   50 1
    23    8   51 1
    24    9   10 1
    25    9   52 1
    26    9   53 1
    27   10   15 ar
    28   10   11 ar
    29   11   12 ar
    30   11   54 1
    31   12   13 ar
    32   12   55 1
    33   13   14 ar
    34   13   20 1
    35   14   15 ar
    36   14   56 1
    37   15   16 1
    38   16   17 1
    39   16   18 1
    40   16   19 1
    41   20   21 am
    42   20   57 1
    43   21   22 2
    44   21   23 am
    45   23   24 1
    46   23   58 1
    47   24   29 ar
    48   24   25 ar
    49   25   26 ar
    50   25   59 1
    51   26   27 ar
    52   26   60 1
    53   27   28 ar
    54   27   30 1
    55   28   29 ar
    56   28   61 1
    57   29   62 1
    58   30   31 1
    59   31   36 ar
    60   31   32 ar
    61   32   33 ar
    62   32   63 1
    63   33   34 ar
    64   33   37 1
    65   34   35 ar
    66   35   36 ar
    67   35   64 1
    68   37   38 1
    69   37   65 1
    70   38   66 1
    71   38   67 1
    72   38   68 1
@<TRIPOS>MOLECULE
CHEMBL281948
   56    63     0     0     0
SMALL
USER_CHARGES

@<TRIPOS>ATOM
      1 C1         -1.1449    0.9207   -2.2992 C.3       1 <0>        -0.1734
      2 C2         -0.8443   -0.1869   -1.2874 C.3       1 <0>         0.3608
      3 C3          0.6608   -0.5271   -1.2917 C.3       1 <0>         0.1089
      4 C4          1.0548   -0.6349    0.1959 C.3       1 <0>        -0.1931
      5 C5         -0.2437   -0.3496    0.9788 C.3       1 <0>         0.3159
      6 H1         -0.0464    0.3283    1.8093 H         1 <0>         0.1526
      7 O1         -1.1290    0.2586    0.0385 O.3       1 <0>        -0.3365
      8 N1         -0.7907   -1.6169    1.4725 N.pl3     1 <0>        -0.5139
      9 C6         -0.6316   -2.1589    2.7227 C.ar      1 <0>         0.1521
     10 C7          0.1280   -1.7303    3.8106 C.ar      1 <0>        -0.1535
     11 C8          0.0716   -2.4964    4.9622 C.ar      1 <0>        -0.0728
     12 C9         -0.6995   -3.6426    5.0489 C.ar      1 <0>        -0.1588
     13 C10        -1.4586   -4.0939    3.9832 C.ar      1 <0>        -0.0351
     14 C11        -1.4138   -3.3367    2.8110 C.ar      1 <0>        -0.1065
     15 C12        -2.0522   -3.5178    1.5109 C.ar      1 <0>         0.0000
     16 C13        -1.6151   -2.4505    0.7283 C.ar      1 <0>         0.1116
     17 C14        -1.9686   -2.3749   -0.6239 C.ar      1 <0>         0.1598
     18 N2         -1.6213   -1.3899   -1.6007 N.pl3     1 <0>        -0.5050
     19 C15        -2.1482   -1.7391   -2.8210 C.ar      1 <0>         0.1774
     20 C16        -2.0102   -1.1429   -4.0736 C.ar      1 <0>        -0.1496
     21 C17        -2.6914   -1.7253   -5.1291 C.ar      1 <0>        -0.0801
     22 C18        -3.4791   -2.8511   -4.9669 C.ar      1 <0>        -0.1542
     23 C19        -3.6271   -3.4663   -3.7348 C.ar      1 <0>        -0.0533
     24 C20        -2.9440   -2.8977   -2.6603 C.ar      1 <0>        -0.0998
     25 C21        -2.7951   -3.3523   -1.1935 C.ar      1 <0>        -0.0500
     26 C22        -3.2927   -4.3756   -0.3931 C.ar      1 <0>        -0.0443
     27 C23        -2.9346   -4.4703    0.9497 C.ar      1 <0>        -0.1321
     28 C24        -3.6117   -5.6413    1.5281 C.2       1 <0>         0.5681
     29 O2         -3.5170   -5.9945    2.6881 O.2       1 <0>        -0.5237
     30 N3         -4.3501   -6.2651    0.5950 N.am      1 <0>        -0.7231
     31 C25        -4.2144   -5.5378   -0.6718 C.3       1 <0>         0.1445
     32 C26         1.4435    0.5727   -1.9615 C.2       1 <0>         0.4474
     33 O3          1.9444    1.4488   -1.2970 O.2       1 <0>        -0.4796
     34 O4          1.5843    0.5792   -3.2964 O.3       1 <0>        -0.3367
     35 C27         2.3389    1.6518   -3.8640 C.3       1 <0>         0.0263
     36 O5          0.8858   -1.7724   -1.9557 O.3       1 <0>        -0.5063
     37 H2         -0.8247    1.8803   -1.8932 H         1 <0>         0.0927
     38 H3         -0.6079    0.7211   -3.2265 H         1 <0>         0.1054
     39 H4         -2.2161    0.9498   -2.4986 H         1 <0>         0.0969
     40 H5          1.4184   -1.6379    0.4192 H         1 <0>         0.1158
     41 H6          1.8148    0.1070    0.4406 H         1 <0>         0.1253
     42 H7          0.7351   -0.8387    3.7568 H         1 <0>         0.1302
     43 H8          0.6489   -2.1895    5.8218 H         1 <0>         0.1266
     44 H9         -0.7088   -4.2005    5.9737 H         1 <0>         0.1257
     45 H10        -2.0581   -4.9894    4.0552 H         1 <0>         0.1522
     46 H11        -1.3985   -0.2640   -4.2147 H         1 <0>         0.1366
     47 H12        -2.6051   -1.2859   -6.1119 H         1 <0>         0.1259
     48 H13        -3.9928   -3.2611   -5.8239 H         1 <0>         0.1251
     49 H14        -4.2422   -4.3455   -3.6122 H         1 <0>         0.1356
     50 H15        -4.8835   -7.0630    0.7354 H         1 <0>         0.4273
     51 H16        -5.1877   -5.1737   -1.0009 H         1 <0>         0.1006
     52 H17        -3.7798   -6.1869   -1.4321 H         1 <0>         0.1012
     53 H18         2.3752    1.5370   -4.9473 H         1 <0>         0.1105
     54 H19         1.8648    2.6011   -3.6149 H         1 <0>         0.0661
     55 H20         3.3522    1.6353   -3.4627 H         1 <0>         0.0654
     56 H21         1.8150   -2.0380   -1.9892 H         1 <0>         0.3910
@<TRIPOS>BOND
     1    1    2 1
     2    1   37 1
     3    1   38 1
     4    1   39 1
     5    2    7 1
     6    2   18 1
     7    2    3 1
     8    3    4 1
     9    3   32 1
    10    3   36 1
    11    4    5 1
    12    4   40 1
    13    4   41 1
    14    5    6 1
    15    5    7 1
    16    5    8 1
    17    8   16 1
    18    8    9 1
    19    9   14 ar
    20    9   10 ar
    21   10   11 ar
    22   10   42 1
    23   11   12 ar
    24   11   43 1
    25   12   13 ar
    26   12   44 1
    27   13   14 ar
    28   13   45 1
    29   14   15 1
    30   15   27 ar
    31   15   16 ar
    32   16   17 ar
    33   17   25 ar
    34   17   18 1
    35   18   19 1
    36   19   24 ar
    37   19   20 ar
    38   20   21 ar
    39   20   46 1
    40   21   22 ar
    41   21   47 1
    42   22   23 ar
    43   22   48 1
    44   23   24 ar
    45   23   49 1
    46   24   25 1
    47   25   26 ar
    48   26   31 1
    49   26   27 ar
    50   27   28 1
    51   28   29 2
    52   28   30 am
    53   30   31 1
    54   30   50 1
    55   31   51 1
    56   31   52 1
    57   32   33 2
    58   32   34 1
    59   34   35 1
    60   35   53 1
    61   35   54 1
    62   35   55 1
    63   36   56 1
@<TRIPOS>MOLECULE
CHEMBL558586
   46    52     0     0     0
SMALL
USER_CHARGES

@<TRIPOS>ATOM
      1 C1         -0.0166    1.3758    0.0096 C.ar      1 <0>        -0.1474
      2 C2          1.1654    2.1095    0.0023 C.ar      1 <0>        -0.0283
      3 C3          2.3719    1.4623    0.0212 C.ar      1 <0>        -0.1880
      4 C4          2.4004    0.0676    0.0859 C.ar      1 <0>         0.1498
      5 C5          1.2221   -0.6765    0.0176 C.ar      1 <0>        -0.0907
      6 C6          0.0021   -0.0041    0.0020 C.ar      1 <0>        -0.0077
      7 C7          1.6544   -2.0810   -0.0730 C.ar      1 <0>        -0.0045
      8 C8          0.9651   -3.2890   -0.2346 C.ar      1 <0>        -0.1053
      9 C9          1.6749   -4.5000   -0.2963 C.ar      1 <0>        -0.0935
     10 C10         3.0730   -4.5002   -0.1942 C.ar      1 <0>         0.0053
     11 C11         4.0885   -5.5515   -0.1965 C.ar      1 <0>        -0.1280
     12 C12         3.9878   -6.9400   -0.2995 C.ar      1 <0>        -0.0031
     13 C13         5.1720   -7.6560   -0.2652 C.ar      1 <0>        -0.1825
     14 C14         6.4012   -7.0275   -0.1344 C.ar      1 <0>         0.1582
     15 C15         6.5190   -5.6492   -0.0310 C.ar      1 <0>        -0.1847
     16 C16         5.3399   -4.9068   -0.0634 C.ar      1 <0>         0.1743
     17 N1          5.1246   -3.5568    0.0179 N.pl3     1 <0>        -0.6031
     18 H1          5.8214   -2.8878    0.1065 H         1 <0>         0.4180
     19 C17         3.7670   -3.2846   -0.0449 C.ar      1 <0>         0.1422
     20 C18         3.0601   -2.0793    0.0242 C.ar      1 <0>         0.1413
     21 N2          3.4788   -0.7773    0.2146 N.pl3     1 <0>        -0.5148
     22 C19         4.8230   -0.3288    0.6284 C.3       1 <0>         0.1050
     23 C20         4.6307    0.7307    1.7212 C.3       1 <0>        -0.0296
     24 N3          4.4229    2.0762    1.1953 N.4       1 <0>        -0.4983
     25 C21         3.7063    2.1565   -0.0658 C.3       1 <0>         0.0444
     26 F1          7.5211   -7.7827   -0.1064 F         1 <0>        -0.1278
     27 C22         0.6612   -5.5548   -0.4740 C.2       1 <0>         0.5802
     28 O1          0.8854   -6.7453   -0.5687 O.2       1 <0>        -0.4462
     29 N4         -0.5540   -4.9791   -0.5135 N.am      1 <0>        -0.6774
     30 C23        -0.4585   -3.6447   -0.3745 C.2       1 <0>         0.5835
     31 O2         -1.3893   -2.8637   -0.3653 O.2       1 <0>        -0.4547
     32 H2         -0.9639    1.8943    0.0260 H         1 <0>         0.1449
     33 H3          1.1313    3.1888   -0.0188 H         1 <0>         0.1446
     34 H4         -0.9239   -0.5596   -0.0159 H         1 <0>         0.1528
     35 H5          3.0318   -7.4321   -0.4008 H         1 <0>         0.1628
     36 H6          5.1377   -8.7327   -0.3419 H         1 <0>         0.1472
     37 H7          7.4826   -5.1721    0.0705 H         1 <0>         0.1499
     38 H8          5.3901   -1.1714    1.0240 H         1 <0>         0.1247
     39 H9          5.3474    0.1063   -0.2223 H         1 <0>         0.1065
     40 H10         3.7672    0.4551    2.3267 H         1 <0>         0.1396
     41 H11         5.5138    0.7378    2.3600 H         1 <0>         0.1552
     42 H12         3.9118    2.6086    1.8834 H         1 <0>         0.4350
     43 H13         4.3036    1.6861   -0.8468 H         1 <0>         0.1312
     44 H14         3.5479    3.2044   -0.3207 H         1 <0>         0.1503
     45 H15        -1.3877   -5.4618   -0.6267 H         1 <0>         0.4373
     46 H16         5.3255    2.5105    1.0737 H         1 <0>         0.4311
@<TRIPOS>BOND
     1    1    6 ar
     2    1    2 ar
     3    1   32 1
     4    2    3 ar
     5    2   33 1
     6    3   25 1
     7    3    4 ar
     8    4   21 1
     9    4    5 ar
    10    5    6 ar
    11    5    7 1
    12    6   34 1
    13    7   20 ar
    14    7    8 ar
    15    8   30 1
    16    8    9 ar
    17    9   10 ar
    18    9   27 1
    19   10   19 ar
    20   10   11 1
    21   11   16 ar
    22   11   12 ar
    23   12   13 ar
    24   12   35 1
    25   13   14 ar
    26   13   36 1
    27   14   15 ar
    28   14   26 1
    29   15   16 ar
    30   15   37 1
    31   16   17 1
    32   17   18 1
    33   17   19 1
    34   19   20 ar
    35   20   21 1
    36   21   22 1
    37   22   23 1
    38   22   38 1
    39   22   39 1
    40   23   24 1
    41   23   40 1
    42   23   41 1
    43   24   25 1
    44   24   42 1
    45   24   46 1
    46   25   43 1
    47   25   44 1
    48   27   28 2
    49   27   29 am
    50   29   30 am
    51   29   45 1
    52   30   31 2
@<TRIPOS>MOLECULE
CHEMBL453217
   37    39     0     0     0
SMALL
USER_CHARGES

@<TRIPOS>ATOM
      1 C1          1.5854    1.0420   -0.2673 C.3       1 <0>        -0.1140
      2 C2          0.7816   -0.2256   -0.1315 C.ar      1 <0>        -0.0622
      3 C3          0.0385   -0.6901   -1.2012 C.ar      1 <0>        -0.1384
      4 C4         -0.7004   -1.8528   -1.0808 C.ar      1 <0>        -0.0606
      5 C5         -0.6988   -2.5537    0.1092 C.ar      1 <0>        -0.1545
      6 C6          0.0465   -2.0898    1.1856 C.ar      1 <0>         0.1709
      7 C7          0.7925   -0.9249    1.0593 C.ar      1 <0>        -0.1206
      8 N1          0.0504   -2.7970    2.3917 N.pl3     1 <0>        -0.6347
      9 C8          0.1514   -2.1158    3.5938 C.ar      1 <0>         0.5676
     10 N2          0.1268   -0.7904    3.5887 N.ar      1 <0>        -0.5451
     11 C9          0.2201   -0.1022    4.7155 C.ar      1 <0>         0.2000
     12 C10         0.3451   -0.7805    5.9148 C.ar      1 <0>        -0.2568
     13 C11         0.3683   -2.1792    5.8897 C.ar      1 <0>         0.2997
     14 N3          0.2645   -2.8051    4.7175 N.ar      1 <0>        -0.5298
     15 C12         0.5006   -2.9504    7.1435 C.2       1 <0>         0.1278
     16 N4          0.5470   -4.2633    7.3229 N.2       1 <0>        -0.4530
     17 C13         0.6683   -4.7838    8.5186 C.2       1 <0>         0.0503
     18 C14         0.7494   -3.9697    9.6076 C.2       1 <0>        -0.1867
     19 S1          0.6493   -2.3640    8.8261 S.3       1 <0>         0.0562
     20 C15         0.7175   -6.2803    8.6892 C.3       1 <0>        -0.0854
     21 C16        -1.5087   -2.3553   -2.2492 C.3       1 <0>        -0.1148
     22 H1          2.5853    0.8012   -0.6282 H         1 <0>         0.0702
     23 H2          1.0944    1.7094   -0.9755 H         1 <0>         0.0674
     24 H3          1.6578    1.5320    0.7036 H         1 <0>         0.0674
     25 H4          0.0350   -0.1435   -2.1327 H         1 <0>         0.1221
     26 H5         -1.2767   -3.4613    0.2028 H         1 <0>         0.1237
     27 H6          1.3765   -0.5640    1.8930 H         1 <0>         0.1328
     28 H7         -0.0176   -3.7646    2.3868 H         1 <0>         0.4255
     29 H8          0.1992    0.9775    4.6988 H         1 <0>         0.1810
     30 H9          0.4234   -0.2430    6.8483 H         1 <0>         0.1515
     31 H10         0.8504   -4.2233   10.6525 H         1 <0>         0.2056
     32 H11         1.7525   -6.6181    8.6370 H         1 <0>         0.0768
     33 H12         0.2959   -6.5497    9.6576 H         1 <0>         0.0767
     34 H13         0.1397   -6.7556    7.8965 H         1 <0>         0.0771
     35 H14        -0.8959   -3.0233   -2.8545 H         1 <0>         0.0718
     36 H15        -2.3812   -2.8956   -1.8819 H         1 <0>         0.0662
     37 H16        -1.8337   -1.5104   -2.8564 H         1 <0>         0.0682
@<TRIPOS>BOND
     1    1    2 1
     2    1   22 1
     3    1   23 1
     4    1   24 1
     5    2    7 ar
     6    2    3 ar
     7    3    4 ar
     8    3   25 1
     9    4    5 ar
    10    4   21 1
    11    5    6 ar
    12    5   26 1
    13    6    7 ar
    14    6    8 1
    15    7   27 1
    16    8    9 1
    17    8   28 1
    18    9   14 ar
    19    9   10 ar
    20   10   11 ar
    21   11   12 ar
    22   11   29 1
    23   12   13 ar
    24   12   30 1
    25   13   14 ar
    26   13   15 1
    27   15   19 1
    28   15   16 2
    29   16   17 1
    30   17   18 2
    31   17   20 1
    32   18   19 1
    33   18   31 1
    34   20   32 1
    35   20   33 1
    36   20   34 1
    37   21   35 1
    38   21   36 1
    39   21   37 1
@<TRIPOS>MOLECULE
CHEMBL411224
   46    48     0     0     0
SMALL
USER_CHARGES

@<TRIPOS>ATOM
      1 C1         -0.0187    1.5258    0.0104 C.3       1 <0>        -0.1482
      2 C2          0.0021   -0.0041    0.0020 C.3       1 <0>        -0.0840
      3 C3          0.7421   -0.5109    1.2415 C.3       1 <0>        -0.1610
      4 C4         -1.4333   -0.5336    0.0129 C.3       1 <0>        -0.0816
      5 C5         -1.4159   -2.0348   -0.1192 C.ar      1 <0>        -0.0089
      6 C6         -1.5534   -2.6231   -1.3608 C.ar      1 <0>        -0.1364
      7 C7         -1.5368   -4.0022   -1.4809 C.ar      1 <0>        -0.0729
      8 C8         -1.3834   -4.8032   -0.3671 C.ar      1 <0>        -0.1376
      9 C9         -1.2436   -4.2291    0.8914 C.ar      1 <0>         0.1477
     10 C10        -1.2557   -2.8327    1.0078 C.ar      1 <0>        -0.0737
     11 C11        -1.0817   -2.5322    2.4477 C.2       1 <0>        -0.0098
     12 N1         -1.0376   -1.3491    3.0184 N.2       1 <0>        -0.1088
     13 N2         -0.8794   -1.2544    4.2951 N.pl3     1 <0>        -0.4937
     14 C12        -0.8326    0.0016    4.9010 C.ar      1 <0>         0.2306
     15 C13        -0.9619    1.1517    4.1313 C.ar      1 <0>        -0.1643
     16 C14        -0.9150    2.3929    4.7344 C.ar      1 <0>         0.0148
     17 C15        -0.7392    2.4926    6.1026 C.ar      1 <0>        -0.7026
     18 C16        -0.6096    1.3505    6.8717 C.ar      1 <0>         0.0188
     19 C17        -0.6621    0.1056    6.2765 C.ar      1 <0>        -0.1766
     20 S1         -0.6794    4.0787    6.8677 S.o2      1 <0>         2.7040
     21 O1          0.0388    3.9166    8.0830 O.2       1 <0>        -0.9633
     22 O2         -0.2780    4.9996    5.8626 O.2       1 <0>        -0.9623
     23 N3         -2.2310    4.4799    7.2847 N.pl3     1 <0>        -1.2504
     24 C18        -0.9695   -3.8473    3.1009 C.2       1 <0>         0.5459
     25 O3         -0.8153   -4.0441    4.2925 O.2       1 <0>        -0.5199
     26 N4         -1.0778   -4.7921    2.1513 N.am      1 <0>        -0.6430
     27 H1          1.0039    1.9031    0.0027 H         1 <0>         0.0565
     28 H2         -0.5459    1.8868   -0.8726 H         1 <0>         0.0562
     29 H3         -0.5289    1.8773    0.9072 H         1 <0>         0.0549
     30 H4          0.5123   -0.3556   -0.8948 H         1 <0>         0.0701
     31 H5          0.2319   -0.1594    2.1383 H         1 <0>         0.0740
     32 H6          0.7568   -1.6008    1.2356 H         1 <0>         0.0529
     33 H7          1.7647   -0.1336    1.2338 H         1 <0>         0.0473
     34 H8         -1.9156   -0.2570    0.9504 H         1 <0>         0.0815
     35 H9         -1.9862   -0.1019   -0.8214 H         1 <0>         0.0769
     36 H10        -1.6744   -2.0066   -2.2393 H         1 <0>         0.1333
     37 H11        -1.6452   -4.4557   -2.4551 H         1 <0>         0.1351
     38 H12        -1.3724   -5.8779   -0.4735 H         1 <0>         0.1313
     39 H13        -0.7930   -2.0564    4.8339 H         1 <0>         0.4125
     40 H14        -1.0986    1.0746    3.0628 H         1 <0>         0.1502
     41 H15        -1.0155    3.2870    4.1370 H         1 <0>         0.1509
     42 H16        -0.4717    1.4322    7.9398 H         1 <0>         0.1520
     43 H17        -0.5661   -0.7860    6.8784 H         1 <0>         0.1416
     44 H18        -2.9588    3.8689    7.0906 H         1 <0>         0.4168
     45 H19        -2.4120    5.3260    7.7232 H         1 <0>         0.4215
     46 H20        -1.0355   -5.7460    2.3223 H         1 <0>         0.4220
@<TRIPOS>BOND
     1    1    2 1
     2    1   27 1
     3    1   28 1
     4    1   29 1
     5    2    3 1
     6    2    4 1
     7    2   30 1
     8    3   31 1
     9    3   32 1
    10    3   33 1
    11    4    5 1
    12    4   34 1
    13    4   35 1
    14    5   10 ar
    15    5    6 ar
    16    6    7 ar
    17    6   36 1
    18    7    8 ar
    19    7   37 1
    20    8    9 ar
    21    8   38 1
    22    9   26 1
    23    9   10 ar
    24   10   11 1
    25   11   12 2
    26   11   24 1
    27   12   13 1
    28   13   14 1
    29   13   39 1
    30   14   19 ar
    31   14   15 ar
    32   15   16 ar
    33   15   40 1
    34   16   17 ar
    35   16   41 1
    36   17   18 ar
    37   17   20 1
    38   18   19 ar
    39   18   42 1
    40   19   43 1
    41   20   21 2
    42   20   22 2
    43   20   23 1
    44   23   44 1
    45   23   45 1
    46   24   25 2
    47   24   26 am
    48   26   46 1
@<TRIPOS>MOLECULE
CHEMBL325023
   55    59     0     0     0
SMALL
USER_CHARGES

@<TRIPOS>ATOM
      1 C1          0.0122    1.5304   -0.0168 C.3       1 <0>        -0.0879
      2 C2          0.0234    0.0234   -0.0185 C.2       1 <0>         0.1226
      3 C3          0.0243   -0.6966   -1.1874 C.2       1 <0>        -0.1811
      4 S1          0.0392   -2.3628   -0.5451 S.3       1 <0>         0.1794
      5 C4          0.0426   -1.9794    1.0937 C.2       1 <0>         0.0520
      6 N1          0.0384   -0.6683    1.0988 N.2       1 <0>        -0.5191
      7 C5          0.0541   -2.9180    2.2726 C.3       1 <0>        -0.0683
      8 C6          0.0150   -0.2247   -2.5864 C.2       1 <0>         0.2468
      9 C7          0.0110   -1.0429   -3.7433 C.2       1 <0>        -0.3237
     10 C8          0.0023   -0.1978   -4.8457 C.2       1 <0>         0.1664
     11 N2          0.0010    1.0698   -4.3805 N.pl3     1 <0>        -0.4160
     12 H1         -0.0049    1.8723   -4.9254 H         1 <0>         0.4517
     13 N3          0.0032    1.0333   -2.9818 N.2       1 <0>        -0.2566
     14 C9         -0.0017   -1.0194   -6.0797 C.ar      1 <0>         0.0080
     15 C10        -0.0101   -0.6769   -7.4239 C.ar      1 <0>        -0.0994
     16 C11        -0.0121   -1.6680   -8.3969 C.ar      1 <0>        -0.0632
     17 C12        -0.0063   -2.9984   -8.0417 C.ar      1 <0>        -0.1151
     18 C13         0.0017   -3.3652   -6.6941 C.ar      1 <0>         0.2341
     19 C14         0.0047   -2.3774   -5.7099 C.ar      1 <0>        -0.1854
     20 C15         0.0126   -2.4359   -4.2309 C.2       1 <0>         0.4921
     21 O1          0.0199   -3.4409   -3.5474 O.2       1 <0>        -0.4383
     22 N4          0.0067   -4.7092   -6.3356 N.am      1 <0>        -0.6617
     23 C16        -0.6601   -5.6091   -7.0852 C.2       1 <0>         0.7324
     24 O2         -1.1974   -5.2606   -8.1186 O.2       1 <0>        -0.5479
     25 N5         -0.7314   -6.8954   -6.6892 N.am      1 <0>        -0.5819
     26 N6         -0.1277   -7.2870   -5.5281 N.3       1 <0>        -0.3084
     27 C17         0.9454   -8.2557   -5.7930 C.3       1 <0>         0.0034
     28 C18         1.6337   -8.6227   -4.4765 C.3       1 <0>        -0.0001
     29 N7          0.6478   -9.1988   -3.5525 N.4       1 <0>        -0.3902
     30 C19        -0.4043   -8.2112   -3.2782 C.3       1 <0>        -0.0010
     31 C20        -1.1095   -7.8407   -4.5848 C.3       1 <0>         0.0073
     32 C21         1.3125   -9.5676   -2.2954 C.3       1 <0>        -0.0466
     33 H2          1.0371    1.9014   -0.0250 H         1 <0>         0.0811
     34 H3         -0.5118    1.8908   -0.9020 H         1 <0>         0.0879
     35 H4         -0.4969    1.8889    0.8779 H         1 <0>         0.0786
     36 H5          1.0845   -3.1367    2.5529 H         1 <0>         0.0927
     37 H6         -0.4600   -2.4519    3.1132 H         1 <0>         0.0965
     38 H7         -0.4538   -3.8444    2.0045 H         1 <0>         0.0857
     39 H8         -0.0154    0.3633   -7.7146 H         1 <0>         0.1398
     40 H9         -0.0187   -1.3928   -9.4413 H         1 <0>         0.1472
     41 H10        -0.0083   -3.7602   -8.8072 H         1 <0>         0.1567
     42 H11         0.4901   -4.9987   -5.5460 H         1 <0>         0.4229
     43 H12        -1.2113   -7.5431   -7.2287 H         1 <0>         0.4122
     44 H13         0.5222   -9.1529   -6.2447 H         1 <0>         0.0744
     45 H14         1.6737   -7.8144   -6.4735 H         1 <0>         0.1318
     46 H15         2.4207   -9.3519   -4.6689 H         1 <0>         0.1441
     47 H16         2.0685   -7.7275   -4.0320 H         1 <0>         0.1435
     48 H17        -1.1282   -8.6353   -2.5823 H         1 <0>         0.1445
     49 H18         0.0410   -7.3181   -2.8398 H         1 <0>         0.1464
     50 H19        -1.8804   -7.0968   -4.3838 H         1 <0>         0.1335
     51 H20        -1.5666   -8.7311   -5.0166 H         1 <0>         0.0739
     52 H21         1.7571   -8.6800   -1.8454 H         1 <0>         0.1260
     53 H22         0.5811   -9.9951   -1.6096 H         1 <0>         0.1264
     54 H23         2.0924  -10.3015   -2.4985 H         1 <0>         0.1260
     55 H24         0.2369  -10.0208   -3.9690 H         1 <0>         0.4238
@<TRIPOS>BOND
     1    1    2 1
     2    1   33 1
     3    1   34 1
     4    1   35 1
     5    2    6 1
     6    2    3 2
     7    3    4 1
     8    3    8 1
     9    4    5 1
    10    5    6 2
    11    5    7 1
    12    7   36 1
    13    7   37 1
    14    7   38 1
    15    8   13 2
    16    8    9 1
    17    9   20 1
    18    9   10 2
    19   10   11 1
    20   10   14 1
    21   11   12 1
    22   11   13 1
    23   14   19 ar
    24   14   15 ar
    25   15   16 ar
    26   15   39 1
    27   16   17 ar
    28   16   40 1
    29   17   18 ar
    30   17   41 1
    31   18   19 ar
    32   18   22 1
    33   19   20 1
    34   20   21 2
    35   22   23 am
    36   22   42 1
    37   23   24 2
    38   23   25 am
    39   25   26 1
    40   25   43 1
    41   26   31 1
    42   26   27 1
    43   27   28 1
    44   27   44 1
    45   27   45 1
    46   28   29 1
    47   28   46 1
    48   28   47 1
    49   29   30 1
    50   29   32 1
    51   29   55 1
    52   30   31 1
    53   30   48 1
    54   30   49 1
    55   31   50 1
    56   31   51 1
    57   32   52 1
    58   32   53 1
    59   32   54 1
@<TRIPOS>MOLECULE
CHEMBL325023
   54    58     0     0     0
SMALL
USER_CHARGES

@<TRIPOS>ATOM
      1 C1         -1.7464    0.8425   -0.2540 C.3       1 <0>        -0.0908
      2 C2         -0.7368   -0.2685   -0.1207 C.2       1 <0>         0.1191
      3 C3         -0.0621   -0.7694   -1.2125 C.2       1 <0>        -0.2131
      4 S1          0.9488   -2.0151   -0.4280 S.3       1 <0>         0.1992
      5 C4          0.4250   -1.7763    1.1535 C.2       1 <0>         0.0585
      6 N1         -0.4508   -0.8051    1.0414 N.2       1 <0>        -0.5194
      7 C5          0.8616   -2.5003    2.4010 C.3       1 <0>        -0.0705
      8 C6         -0.1497   -0.3862   -2.6261 C.2       1 <0>         0.2789
      9 C7         -0.3192   -1.2469   -3.7070 C.2       1 <0>        -0.3180
     10 C8         -0.3489   -0.4073   -4.9080 C.2       1 <0>         0.1313
     11 N2         -0.2055    0.8355   -4.5200 N.2       1 <0>        -0.2260
     12 H1          0.0260    1.6887   -2.6008 H         1 <0>         0.4494
     13 N3         -0.0862    0.8820   -3.1277 N.pl3     1 <0>        -0.4585
     14 C9         -0.5288   -1.3051   -6.0757 C.ar      1 <0>         0.0408
     15 C10        -0.6230   -1.0416   -7.4365 C.ar      1 <0>        -0.1100
     16 C11        -0.7922   -2.0791   -8.3380 C.ar      1 <0>        -0.0606
     17 C12        -0.8697   -3.3846   -7.8973 C.ar      1 <0>        -0.1329
     18 C13        -0.7784   -3.6723   -6.5397 C.ar      1 <0>         0.2474
     19 C14        -0.6062   -2.6319   -5.6176 C.ar      1 <0>        -0.1967
     20 C15        -0.4801   -2.6369   -4.1462 C.2       1 <0>         0.4896
     21 O1         -0.5042   -3.6187   -3.4271 O.2       1 <0>        -0.4396
     22 N4         -0.8575   -4.9905   -6.0984 N.am      1 <0>        -0.6615
     23 C16        -1.4974   -5.9134   -6.8435 C.2       1 <0>         0.7338
     24 O2         -2.0946   -5.5764   -7.8475 O.2       1 <0>        -0.5667
     25 N5         -1.4754   -7.2098   -6.4757 N.am      1 <0>        -0.5816
     26 N6         -0.8045   -7.5884   -5.3476 N.3       1 <0>        -0.3120
     27 C17         0.3153   -8.4816   -5.6757 C.3       1 <0>         0.0375
     28 C18         1.0873   -8.8182   -4.3978 C.3       1 <0>         0.0577
     29 N7          0.1784   -9.4508   -3.4317 N.3       1 <0>        -0.5468
     30 C19        -0.9415   -8.5576   -3.1036 C.3       1 <0>         0.0574
     31 C20        -1.7135   -8.2211   -4.3816 C.3       1 <0>         0.0387
     32 C21         0.8999   -9.8580   -2.2186 C.3       1 <0>         0.0244
     33 H2         -1.2613    1.7993   -0.0612 H         1 <0>         0.0822
     34 H3         -2.1577    0.8405   -1.2634 H         1 <0>         0.0739
     35 H4         -2.5504    0.6911    0.4662 H         1 <0>         0.0863
     36 H5          1.7117   -1.9811    2.8437 H         1 <0>         0.0948
     37 H6          0.0382   -2.5235    3.1147 H         1 <0>         0.0969
     38 H7          1.1510   -3.5200    2.1468 H         1 <0>         0.0900
     39 H8         -0.5643   -0.0237   -7.7926 H         1 <0>         0.1382
     40 H9         -0.8644   -1.8649   -9.3940 H         1 <0>         0.1426
     41 H10        -1.0021   -4.1858   -8.6093 H         1 <0>         0.1615
     42 H11        -0.4519   -5.2447   -5.2547 H         1 <0>         0.4277
     43 H12        -1.9360   -7.8740   -7.0119 H         1 <0>         0.4030
     44 H13        -0.0697   -9.3993   -6.1203 H         1 <0>         0.0574
     45 H14         0.9807   -7.9860   -6.3827 H         1 <0>         0.0895
     46 H15         1.9011   -9.5037   -4.6343 H         1 <0>         0.0887
     47 H16         1.4954   -7.9034   -3.9679 H         1 <0>         0.0490
     48 H17        -1.6069   -9.0532   -2.3967 H         1 <0>         0.0886
     49 H18        -0.5564   -7.6399   -2.6591 H         1 <0>         0.0512
     50 H19        -2.5272   -7.5355   -4.1451 H         1 <0>         0.0902
     51 H20        -2.1215   -9.1358   -4.8115 H         1 <0>         0.0572
     52 H21         1.3504   -8.9817   -1.7525 H         1 <0>         0.0300
     53 H22         0.2038  -10.3232   -1.5208 H         1 <0>         0.0709
     54 H23         1.6809  -10.5711   -2.4825 H         1 <0>         0.0711
@<TRIPOS>BOND
     1    1    2 1
     2    1   33 1
     3    1   34 1
     4    1   35 1
     5    2    6 1
     6    2    3 2
     7    3    4 1
     8    3    8 1
     9    4    5 1
    10    5    6 2
    11    5    7 1
    12    7   36 1
    13    7   37 1
    14    7   38 1
    15    8    9 2
    16    8   13 1
    17    9   20 1
    18    9   10 1
    19   10   14 1
    20   10   11 2
    21   11   13 1
    22   12   13 1
    23   14   19 ar
    24   14   15 ar
    25   15   16 ar
    26   15   39 1
    27   16   17 ar
    28   16   40 1
    29   17   18 ar
    30   17   41 1
    31   18   19 ar
    32   18   22 1
    33   19   20 1
    34   20   21 2
    35   22   23 am
    36   22   42 1
    37   23   24 2
    38   23   25 am
    39   25   26 1
    40   25   43 1
    41   26   31 1
    42   26   27 1
    43   27   28 1
    44   27   44 1
    45   27   45 1
    46   28   29 1
    47   28   46 1
    48   28   47 1
    49   29   30 1
    50   29   32 1
    51   30   31 1
    52   30   48 1
    53   30   49 1
    54   31   50 1
    55   31   51 1
    56   32   52 1
    57   32   53 1
    58   32   54 1
@<TRIPOS>MOLECULE
CHEMBL325023
   54    58     0     0     0
SMALL
USER_CHARGES

@<TRIPOS>ATOM
      1 C1          0.0122    1.5304   -0.0168 C.3       1 <0>        -0.0842
      2 C2          0.0234    0.0234   -0.0185 C.2       1 <0>         0.1163
      3 C3          0.0243   -0.6966   -1.1874 C.2       1 <0>        -0.1827
      4 S1          0.0392   -2.3628   -0.5451 S.3       1 <0>         0.1995
      5 C4          0.0426   -1.9794    1.0937 C.2       1 <0>         0.0459
      6 N1          0.0384   -0.6683    1.0988 N.2       1 <0>        -0.5224
      7 C5          0.0541   -2.9180    2.2726 C.3       1 <0>        -0.0679
      8 C6          0.0150   -0.2247   -2.5864 C.2       1 <0>         0.2455
      9 C7          0.0110   -1.0429   -3.7433 C.2       1 <0>        -0.3180
     10 C8          0.0023   -0.1978   -4.8457 C.2       1 <0>         0.1659
     11 N2          0.0010    1.0698   -4.3805 N.pl3     1 <0>        -0.4209
     12 H1         -0.0049    1.8723   -4.9254 H         1 <0>         0.4491
     13 N3          0.0032    1.0333   -2.9818 N.2       1 <0>        -0.2621
     14 C9         -0.0017   -1.0194   -6.0797 C.ar      1 <0>         0.0060
     15 C10        -0.0101   -0.6769   -7.4239 C.ar      1 <0>        -0.1068
     16 C11        -0.0121   -1.6680   -8.3969 C.ar      1 <0>        -0.0677
     17 C12        -0.0063   -2.9984   -8.0417 C.ar      1 <0>        -0.1151
     18 C13         0.0017   -3.3652   -6.6941 C.ar      1 <0>         0.2459
     19 C14         0.0047   -2.3774   -5.7099 C.ar      1 <0>        -0.1878
     20 C15         0.0126   -2.4359   -4.2309 C.2       1 <0>         0.4821
     21 O1          0.0199   -3.4409   -3.5474 O.2       1 <0>        -0.4230
     22 N4          0.0067   -4.7092   -6.3356 N.am      1 <0>        -0.6645
     23 C16        -0.6601   -5.6091   -7.0852 C.2       1 <0>         0.7353
     24 O2         -1.1974   -5.2606   -8.1186 O.2       1 <0>        -0.5699
     25 N5         -0.7314   -6.8954   -6.6892 N.am      1 <0>        -0.5813
     26 N6         -0.1277   -7.2870   -5.5281 N.3       1 <0>        -0.3112
     27 C17         0.9469   -8.2537   -5.7932 C.3       1 <0>         0.0365
     28 C18         1.6482   -8.6059   -4.4793 C.3       1 <0>         0.0578
     29 N7          0.6666   -9.1595   -3.5361 N.3       1 <0>        -0.5470
     30 C19        -0.4080   -8.1928   -3.2710 C.3       1 <0>         0.0574
     31 C20        -1.1094   -7.8407   -4.5849 C.3       1 <0>         0.0402
     32 C21         1.3158   -9.5807   -2.2874 C.3       1 <0>         0.0243
     33 H2          1.0371    1.9014   -0.0250 H         1 <0>         0.0783
     34 H3         -0.5118    1.8908   -0.9020 H         1 <0>         0.0868
     35 H4         -0.4969    1.8889    0.8779 H         1 <0>         0.0758
     36 H5          1.0845   -3.1367    2.5529 H         1 <0>         0.0921
     37 H6         -0.4600   -2.4519    3.1132 H         1 <0>         0.0941
     38 H7         -0.4538   -3.8444    2.0045 H         1 <0>         0.0876
     39 H8         -0.0154    0.3633   -7.7146 H         1 <0>         0.1356
     40 H9         -0.0187   -1.3928   -9.4413 H         1 <0>         0.1435
     41 H10        -0.0083   -3.7602   -8.8072 H         1 <0>         0.1574
     42 H11         0.4901   -4.9987   -5.5460 H         1 <0>         0.4269
     43 H12        -1.2113   -7.5431   -7.2287 H         1 <0>         0.4029
     44 H13         0.5234   -9.1568   -6.2328 H         1 <0>         0.0573
     45 H14         1.6674   -7.8161   -6.4841 H         1 <0>         0.0888
     46 H15         2.4268   -9.3447   -4.6693 H         1 <0>         0.0884
     47 H16         2.0951   -7.7075   -4.0534 H         1 <0>         0.0491
     48 H17        -1.1286   -8.6305   -2.5801 H         1 <0>         0.0885
     49 H18         0.0155   -7.2898   -2.8314 H         1 <0>         0.0526
     50 H19        -1.8879   -7.1018   -4.3949 H         1 <0>         0.0905
     51 H20        -1.5562   -8.7390   -5.0108 H         1 <0>         0.0564
     52 H21         1.8012   -8.7224   -1.8229 H         1 <0>         0.0304
     53 H22         0.5667   -9.9865   -1.6074 H         1 <0>         0.0711
     54 H23         2.0610  -10.3457   -2.5054 H         1 <0>         0.0708
@<TRIPOS>BOND
     1    1    2 1
     2    1   33 1
     3    1   34 1
     4    1   35 1
     5    2    6 1
     6    2    3 2
     7    3    4 1
     8    3    8 1
     9    4    5 1
    10    5    6 2
    11    5    7 1
    12    7   36 1
    13    7   37 1
    14    7   38 1
    15    8   13 2
    16    8    9 1
    17    9   20 1
    18    9   10 2
    19   10   11 1
    20   10   14 1
    21   11   12 1
    22   11   13 1
    23   14   19 ar
    24   14   15 ar
    25   15   16 ar
    26   15   39 1
    27   16   17 ar
    28   16   40 1
    29   17   18 ar
    30   17   41 1
    31   18   19 ar
    32   18   22 1
    33   19   20 1
    34   20   21 2
    35   22   23 am
    36   22   42 1
    37   23   24 2
    38   23   25 am
    39   25   26 1
    40   25   43 1
    41   26   31 1
    42   26   27 1
    43   27   28 1
    44   27   44 1
    45   27   45 1
    46   28   29 1
    47   28   46 1
    48   28   47 1
    49   29   30 1
    50   29   32 1
    51   30   31 1
    52   30   48 1
    53   30   49 1
    54   31   50 1
    55   31   51 1
    56   32   52 1
    57   32   53 1
    58   32   54 1
@<TRIPOS>MOLECULE
CHEMBL325023
   55    59     0     0     0
SMALL
USER_CHARGES

@<TRIPOS>ATOM
      1 C1         -1.7464    0.8425   -0.2540 C.3       1 <0>        -0.0942
      2 C2         -0.7368   -0.2685   -0.1207 C.2       1 <0>         0.1254
      3 C3         -0.0621   -0.7694   -1.2125 C.2       1 <0>        -0.2159
      4 S1          0.9488   -2.0151   -0.4280 S.3       1 <0>         0.1871
      5 C4          0.4250   -1.7763    1.1535 C.2       1 <0>         0.0640
      6 N1         -0.4508   -0.8051    1.0414 N.2       1 <0>        -0.5176
      7 C5          0.8616   -2.5003    2.4010 C.3       1 <0>        -0.0713
      8 C6         -0.1497   -0.3862   -2.6261 C.2       1 <0>         0.2863
      9 C7         -0.3192   -1.2469   -3.7070 C.2       1 <0>        -0.3264
     10 C8         -0.3489   -0.4073   -4.9080 C.2       1 <0>         0.1281
     11 N2         -0.2055    0.8355   -4.5200 N.2       1 <0>        -0.2189
     12 H1          0.0260    1.6887   -2.6008 H         1 <0>         0.4520
     13 N3         -0.0862    0.8820   -3.1277 N.pl3     1 <0>        -0.4549
     14 C9         -0.5288   -1.3051   -6.0757 C.ar      1 <0>         0.0444
     15 C10        -0.6230   -1.0416   -7.4365 C.ar      1 <0>        -0.1030
     16 C11        -0.7922   -2.0791   -8.3380 C.ar      1 <0>        -0.0566
     17 C12        -0.8697   -3.3846   -7.8973 C.ar      1 <0>        -0.1325
     18 C13        -0.7784   -3.6723   -6.5397 C.ar      1 <0>         0.2352
     19 C14        -0.6062   -2.6319   -5.6176 C.ar      1 <0>        -0.1941
     20 C15        -0.4801   -2.6369   -4.1462 C.2       1 <0>         0.4994
     21 O1         -0.5042   -3.6187   -3.4271 O.2       1 <0>        -0.4546
     22 N4         -0.8575   -4.9905   -6.0984 N.am      1 <0>        -0.6592
     23 C16        -1.4974   -5.9134   -6.8435 C.2       1 <0>         0.7307
     24 O2         -2.0946   -5.5764   -7.8475 O.2       1 <0>        -0.5449
     25 N5         -1.4754   -7.2098   -6.4757 N.am      1 <0>        -0.5822
     26 N6         -0.8045   -7.5884   -5.3476 N.3       1 <0>        -0.3091
     27 C17         0.3140   -8.4836   -5.6756 C.3       1 <0>         0.0045
     28 C18         1.0739   -8.8359   -4.3948 C.3       1 <0>        -0.0004
     29 N7          0.1614   -9.4908   -3.4483 N.4       1 <0>        -0.3900
     30 C19        -0.9370   -8.5755   -3.1115 C.3       1 <0>        -0.0007
     31 C20        -1.7136   -8.2212   -4.3815 C.3       1 <0>         0.0058
     32 C21         0.8955   -9.8450   -2.2262 C.3       1 <0>        -0.0465
     33 H2         -1.2613    1.7993   -0.0612 H         1 <0>         0.0852
     34 H3         -2.1577    0.8405   -1.2634 H         1 <0>         0.0745
     35 H4         -2.5504    0.6911    0.4662 H         1 <0>         0.0884
     36 H5          1.7117   -1.9811    2.8437 H         1 <0>         0.0970
     37 H6          0.0382   -2.5235    3.1147 H         1 <0>         0.0985
     38 H7          1.1510   -3.5200    2.1468 H         1 <0>         0.0883
     39 H8         -0.5643   -0.0237   -7.7926 H         1 <0>         0.1423
     40 H9         -0.8644   -1.8649   -9.3940 H         1 <0>         0.1461
     41 H10        -1.0021   -4.1858   -8.6093 H         1 <0>         0.1603
     42 H11        -0.4519   -5.2447   -5.2547 H         1 <0>         0.4237
     43 H12        -1.9360   -7.8740   -7.0119 H         1 <0>         0.4121
     44 H13        -0.0715   -9.3953   -6.1321 H         1 <0>         0.0746
     45 H14         0.9873   -7.9843   -6.3723 H         1 <0>         0.1324
     46 H15         1.8954   -9.5112   -4.6339 H         1 <0>         0.1443
     47 H16         1.4709   -7.9254   -3.9459 H         1 <0>         0.1433
     48 H17        -1.6063   -9.0579   -2.3991 H         1 <0>         0.1444
     49 H18        -0.5296   -7.6664   -2.6691 H         1 <0>         0.1452
     50 H19        -2.5195   -7.5303   -4.1341 H         1 <0>         0.1331
     51 H20        -2.1325   -9.1284   -4.8167 H         1 <0>         0.0745
     52 H21         1.3029   -8.9415   -1.7724 H         1 <0>         0.1256
     53 H22         0.2185  -10.3310   -1.5237 H         1 <0>         0.1262
     54 H23         1.7098  -10.5252   -2.4758 H         1 <0>         0.1262
     55 H24        -0.2150  -10.3274   -3.8684 H         1 <0>         0.4240
@<TRIPOS>BOND
     1    1    2 1
     2    1   33 1
     3    1   34 1
     4    1   35 1
     5    2    6 1
     6    2    3 2
     7    3    4 1
     8    3    8 1
     9    4    5 1
    10    5    6 2
    11    5    7 1
    12    7   36 1
    13    7   37 1
    14    7   38 1
    15    8    9 2
    16    8   13 1
    17    9   20 1
    18    9   10 1
    19   10   14 1
    20   10   11 2
    21   11   13 1
    22   12   13 1
    23   14   19 ar
    24   14   15 ar
    25   15   16 ar
    26   15   39 1
    27   16   17 ar
    28   16   40 1
    29   17   18 ar
    30   17   41 1
    31   18   19 ar
    32   18   22 1
    33   19   20 1
    34   20   21 2
    35   22   23 am
    36   22   42 1
    37   23   24 2
    38   23   25 am
    39   25   26 1
    40   25   43 1
    41   26   31 1
    42   26   27 1
    43   27   28 1
    44   27   44 1
    45   27   45 1
    46   28   29 1
    47   28   46 1
    48   28   47 1
    49   29   30 1
    50   29   32 1
    51   29   55 1
    52   30   31 1
    53   30   48 1
    54   30   49 1
    55   31   50 1
    56   31   51 1
    57   32   52 1
    58   32   53 1
    59   32   54 1
@<TRIPOS>MOLECULE
CHEMBL272217
   50    53     0     0     0
SMALL
USER_CHARGES

@<TRIPOS>ATOM
      1 C1         -0.0167    1.3793    0.0096 C.ar      1 <0>        -0.0336
      2 C2          1.1610    2.1000    0.0023 C.ar      1 <0>        -0.1689
      3 C3          2.3856    1.4405   -0.0135 C.ar      1 <0>         0.1887
      4 C4          2.4051    0.0404   -0.0212 C.ar      1 <0>        -0.1147
      5 C5          1.2117   -0.6809   -0.0136 C.ar      1 <0>         0.2017
      6 C6          0.0021   -0.0041    0.0020 C.ar      1 <0>        -0.2291
      7 O1          1.2344   -2.0393   -0.0215 O.3       1 <0>        -0.2966
      8 C7         -0.0278   -2.7093   -0.0129 C.3       1 <0>         0.0629
      9 C8          0.1980   -4.2225   -0.0236 C.3       1 <0>        -0.0810
     10 C9         -1.1331   -4.9291   -0.0146 C.ar      1 <0>        -0.0411
     11 C10        -1.7511   -5.2635    1.1807 C.ar      1 <0>        -0.1670
     12 C11        -2.9715   -5.9112    1.1497 C.ar      1 <0>         0.1022
     13 N1         -3.5471   -6.2111    0.0017 N.ar      1 <0>        -0.4851
     14 C12        -2.9885   -5.9085   -1.1539 C.ar      1 <0>         0.1019
     15 C13        -1.7716   -5.2552   -1.2014 C.ar      1 <0>        -0.1674
     16 C14         3.8313   -0.3579   -0.0375 C.2       1 <0>         0.0008
     17 N2          4.3213   -1.5772   -0.0493 N.2       1 <0>        -0.1088
     18 N3          5.5983   -1.7591   -0.0629 N.pl3     1 <0>        -0.4924
     19 C15         6.1185   -3.0536   -0.0755 C.ar      1 <0>         0.2309
     20 C16         5.2623   -4.1485   -0.0791 C.ar      1 <0>        -0.1596
     21 C17         5.7809   -5.4282   -0.0920 C.ar      1 <0>         0.0131
     22 C18         7.1503   -5.6212   -0.1008 C.ar      1 <0>        -0.7033
     23 C19         8.0054   -4.5342   -0.0972 C.ar      1 <0>         0.0177
     24 C20         7.4943   -3.2515   -0.0901 C.ar      1 <0>        -0.1775
     25 S1          7.8073   -7.2561   -0.1161 S.o2      1 <0>         2.7041
     26 O2          9.1173   -7.1724    0.4283 O.2       1 <0>        -0.9635
     27 O3          6.8062   -8.1012    0.4342 O.2       1 <0>        -0.9630
     28 N4          7.9813   -7.6990   -1.7022 N.pl3     1 <0>        -1.2505
     29 C21         4.5812    0.9098   -0.0381 C.2       1 <0>         0.5471
     30 O4          5.7933    1.0250   -0.0496 O.2       1 <0>        -0.5161
     31 N5          3.6915    1.9168   -0.0239 N.am      1 <0>        -0.6416
     32 H1         -0.9623    1.9009    0.0260 H         1 <0>         0.1393
     33 H2          1.1313    3.1795    0.0083 H         1 <0>         0.1353
     34 H3         -0.9258   -0.5567    0.0083 H         1 <0>         0.1380
     35 H4         -0.5809   -2.4308    0.8841 H         1 <0>         0.0690
     36 H5         -0.5983   -2.4208   -0.8958 H         1 <0>         0.0689
     37 H6          0.7511   -4.5010   -0.9206 H         1 <0>         0.0910
     38 H7          0.7684   -4.5111    0.8592 H         1 <0>         0.0915
     39 H8         -1.2844   -5.0211    2.1240 H         1 <0>         0.1369
     40 H9         -3.4594   -6.1750    2.0763 H         1 <0>         0.1577
     41 H10        -3.4899   -6.1706   -2.0739 H         1 <0>         0.1575
     42 H11        -1.3216   -5.0056   -2.1509 H         1 <0>         0.1365
     43 H12         6.1969   -0.9958   -0.0644 H         1 <0>         0.4109
     44 H13         4.1928   -3.9986   -0.0715 H         1 <0>         0.1514
     45 H14         5.1162   -6.2794   -0.0948 H         1 <0>         0.1501
     46 H15         9.0743   -4.6887   -0.1038 H         1 <0>         0.1517
     47 H16         8.1626   -2.4031   -0.0918 H         1 <0>         0.1414
     48 H17         7.7317   -7.0824   -2.4082 H         1 <0>         0.4168
     49 H18         8.3328   -8.5751   -1.9253 H         1 <0>         0.4213
     50 H19         3.9302    2.8570   -0.0212 H         1 <0>         0.4245
@<TRIPOS>BOND
     1    1    6 ar
     2    1    2 ar
     3    1   32 1
     4    2    3 ar
     5    2   33 1
     6    3   31 1
     7    3    4 ar
     8    4    5 ar
     9    4   16 1
    10    5    6 ar
    11    5    7 1
    12    6   34 1
    13    7    8 1
    14    8    9 1
    15    8   35 1
    16    8   36 1
    17    9   10 1
    18    9   37 1
    19    9   38 1
    20   10   15 ar
    21   10   11 ar
    22   11   12 ar
    23   11   39 1
    24   12   13 ar
    25   12   40 1
    26   13   14 ar
    27   14   15 ar
    28   14   41 1
    29   15   42 1
    30   16   17 2
    31   16   29 1
    32   17   18 1
    33   18   19 1
    34   18   43 1
    35   19   24 ar
    36   19   20 ar
    37   20   21 ar
    38   20   44 1
    39   21   22 ar
    40   21   45 1
    41   22   23 ar
    42   22   25 1
    43   23   24 ar
    44   23   46 1
    45   24   47 1
    46   25   26 2
    47   25   27 2
    48   25   28 1
    49   28   48 1
    50   28   49 1
    51   29   30 2
    52   29   31 am
    53   31   50 1
@<TRIPOS>MOLECULE
CHEMBL79498
   42    46     0     0     0
SMALL
USER_CHARGES

@<TRIPOS>ATOM
      1 C1         -0.0163    1.3486    0.0095 C.2       1 <0>        -0.2066
      2 C2          1.3125    1.7938   -0.0008 C.2       1 <0>        -0.1560
      3 C3          2.1119    0.6861   -0.0144 C.2       1 <0>         0.0083
      4 N1          1.2973   -0.4196   -0.0126 N.pl3     1 <0>        -0.5275
      5 H1          1.5957   -1.3425   -0.0204 H         1 <0>         0.4216
      6 C4          0.0021   -0.0041    0.0020 C.2       1 <0>         0.0264
      7 C5          3.5848    0.6790   -0.0290 C.ar      1 <0>         0.1282
      8 C6          4.2804    1.6140   -0.8076 C.ar      1 <0>        -0.1303
      9 C7          5.6666    1.6590   -0.8633 C.ar      1 <0>        -0.0396
     10 C8          6.4222    0.6898   -0.0756 C.ar      1 <0>        -0.0402
     11 C9          7.8190    0.5984   -0.0177 C.ar      1 <0>         0.0980
     12 C10         8.3807   -0.3816    0.7816 C.ar      1 <0>        -0.1120
     13 C11         7.6208   -1.2779    1.5276 C.ar      1 <0>        -0.0764
     14 C12         6.2386   -1.2125    1.4903 C.ar      1 <0>         0.1448
     15 C13         5.6901   -0.2217    0.6835 C.ar      1 <0>        -0.0678
     16 C14         4.2876   -0.2605    0.7415 C.ar      1 <0>        -0.1672
     17 C15         3.9948   -1.3574    1.6557 C.2       1 <0>         0.5736
     18 O1          2.8842   -1.7365    1.9848 O.2       1 <0>        -0.4847
     19 N2          5.1739   -1.8952    2.0641 N.am      1 <0>        -0.6468
     20 F1          8.5981    1.4456   -0.7250 F         1 <0>        -0.1178
     21 S1          6.4927    2.8547   -1.8595 S.3       1 <0>         0.0155
     22 C16         5.1440    3.7998   -2.6199 C.3       1 <0>        -0.1485
     23 H2          4.4518    3.1342   -3.1356 H         1 <0>         0.1334
     24 C17         4.3994    4.6471   -1.5547 C.3       1 <0>        -0.1482
     25 C18         3.8290    5.8015   -2.4159 C.3       1 <0>        -0.0049
     26 N3          4.8795    6.0793   -3.4184 N.4       1 <0>        -0.5117
     27 C19         5.7018    4.8637   -3.5886 C.3       1 <0>         0.0191
     28 H3         -0.8971    1.9734    0.0252 H         1 <0>         0.1433
     29 H4          1.6432    2.8219    0.0012 H         1 <0>         0.1350
     30 H5         -0.8661   -0.6464    0.0069 H         1 <0>         0.1728
     31 H6          3.7150    2.3281   -1.3879 H         1 <0>         0.1403
     32 H7          9.4573   -0.4546    0.8285 H         1 <0>         0.1534
     33 H8          8.1097   -2.0247    2.1355 H         1 <0>         0.1513
     34 H9          5.2598   -2.6425    2.6766 H         1 <0>         0.4302
     35 H10         3.5974    4.0733   -1.0903 H         1 <0>         0.1253
     36 H11         5.0920    5.0260   -0.8032 H         1 <0>         0.1164
     37 H12         2.9081    5.4885   -2.9080 H         1 <0>         0.1396
     38 H13         3.6503    6.6824   -1.7994 H         1 <0>         0.1449
     39 H14         4.4523    6.3234   -4.2993 H         1 <0>         0.4369
     40 H15         6.7407    5.0819   -3.3414 H         1 <0>         0.1422
     41 H16         5.6301    4.5045   -4.6151 H         1 <0>         0.1500
     42 H17         5.4590    6.8417   -3.1006 H         1 <0>         0.4359
@<TRIPOS>BOND
     1    1    6 2
     2    1    2 1
     3    1   28 1
     4    2    3 2
     5    2   29 1
     6    3    4 1
     7    3    7 1
     8    4    5 1
     9    4    6 1
    10    6   30 1
    11    7   16 ar
    12    7    8 ar
    13    8    9 ar
    14    8   31 1
    15    9   10 ar
    16    9   21 1
    17   10   15 ar
    18   10   11 ar
    19   11   12 ar
    20   11   20 1
    21   12   13 ar
    22   12   32 1
    23   13   14 ar
    24   13   33 1
    25   14   19 1
    26   14   15 ar
    27   15   16 ar
    28   16   17 1
    29   17   18 2
    30   17   19 am
    31   19   34 1
    32   21   22 1
    33   22   23 1
    34   22   27 1
    35   22   24 1
    36   24   25 1
    37   24   35 1
    38   24   36 1
    39   25   26 1
    40   25   37 1
    41   25   38 1
    42   26   27 1
    43   26   39 1
    44   26   42 1
    45   27   40 1
    46   27   41 1
@<TRIPOS>MOLECULE
CHEMBL373346
   48    51     0     0     0
SMALL
USER_CHARGES

@<TRIPOS>ATOM
      1 C1          0.2209    1.4991   -0.1445 C.3       1 <0>        -0.1467
      2 C2         -0.0237   -0.0024    0.0182 C.3       1 <0>        -0.0638
      3 C3          0.7108   -0.5020    1.2356 C.ar      1 <0>        -0.0663
      4 C4          2.0852   -0.3713    1.3141 C.ar      1 <0>        -0.0716
      5 C5          2.7612   -0.8277    2.4286 C.ar      1 <0>        -0.1035
      6 C6          2.0592   -1.4184    3.4710 C.ar      1 <0>         0.1288
      7 C7          0.6790   -1.5482    3.3891 C.ar      1 <0>        -0.1118
      8 C8          0.0083   -1.0850    2.2742 C.ar      1 <0>        -0.0974
      9 N1          2.7417   -1.8827    4.6023 N.am      1 <0>        -0.5155
     10 C9          2.8554   -3.2267    4.9233 C.2       1 <0>         0.0955
     11 C10         2.3512   -4.2292    4.2298 C.2       1 <0>        -0.2287
     12 C11         3.6545   -3.3510    6.2021 C.3       1 <0>        -0.0937
     13 C12         3.9860   -1.8932    6.5743 C.3       1 <0>        -0.1549
     14 C13         3.3524   -1.0720    5.4753 C.2       1 <0>         0.5202
     15 O1          3.3892    0.1378    5.3974 O.2       1 <0>        -0.5014
     16 C14         0.4772   -0.7283   -1.2038 C.2       1 <0>         0.5271
     17 O2          1.3453   -1.5686   -1.0967 O.2       1 <0>        -0.4982
     18 N2         -0.0393   -0.4436   -2.4157 N.am      1 <0>        -0.6354
     19 C15         0.4266   -1.1187   -3.5522 C.2       1 <0>         0.3033
     20 C16         1.4178   -2.1130   -3.5724 C.2       1 <0>        -0.2591
     21 C17         1.5799   -2.5113   -4.8545 C.2       1 <0>         0.1309
     22 N3          0.7264   -1.7994   -5.6202 N.pl3     1 <0>        -0.4670
     23 H1          0.6248   -1.8752   -6.5819 H         1 <0>         0.4392
     24 N4          0.0087   -0.9361   -4.7826 N.2       1 <0>        -0.3182
     25 C18         2.5430   -3.5630   -5.3419 C.3       1 <0>        -0.0986
     26 C19         3.1626   -3.3660   -6.7269 C.3       1 <0>        -0.1702
     27 C20         2.0964   -4.4421   -6.5118 C.3       1 <0>        -0.1698
     28 H2          1.2887    1.6825   -0.2637 H         1 <0>         0.0671
     29 H3         -0.3104    1.8605   -1.0250 H         1 <0>         0.0674
     30 H4         -0.1415    2.0241    0.7393 H         1 <0>         0.0778
     31 H5         -1.0916   -0.1858    0.1374 H         1 <0>         0.1140
     32 H6          2.6306    0.0879    0.5029 H         1 <0>         0.1271
     33 H7          3.8346   -0.7256    2.4892 H         1 <0>         0.1243
     34 H8          0.1303   -2.0076    4.1981 H         1 <0>         0.1282
     35 H9         -1.0656   -1.1817    2.2119 H         1 <0>         0.1308
     36 H10         1.8675   -4.0413    3.2826 H         1 <0>         0.1082
     37 H11         2.4222   -5.2379    4.6092 H         1 <0>         0.1255
     38 H12         3.0554   -3.8186    6.9835 H         1 <0>         0.1001
     39 H13         4.5686   -3.9187    6.0282 H         1 <0>         0.1005
     40 H14         3.5527   -1.6391    7.5417 H         1 <0>         0.1136
     41 H15         5.0650   -1.7392    6.5870 H         1 <0>         0.1132
     42 H16        -0.7335    0.2284   -2.5013 H         1 <0>         0.4163
     43 H17         1.9554   -2.4924   -2.7159 H         1 <0>         0.1729
     44 H18         3.1634   -4.0245   -4.5737 H         1 <0>         0.1341
     45 H19         2.8736   -2.4758   -7.2856 H         1 <0>         0.0948
     46 H20         4.1909   -3.6979   -6.8701 H         1 <0>         0.1080
     47 H21         2.4234   -5.4819   -6.5134 H         1 <0>         0.1080
     48 H22         1.1060   -4.2599   -6.9289 H         1 <0>         0.0949
@<TRIPOS>BOND
     1    1    2 1
     2    1   28 1
     3    1   29 1
     4    1   30 1
     5    2    3 1
     6    2   16 1
     7    2   31 1
     8    3    8 ar
     9    3    4 ar
    10    4    5 ar
    11    4   32 1
    12    5    6 ar
    13    5   33 1
    14    6    7 ar
    15    6    9 1
    16    7    8 ar
    17    7   34 1
    18    8   35 1
    19    9   14 am
    20    9   10 1
    21   10   11 2
    22   10   12 1
    23   11   36 1
    24   11   37 1
    25   12   13 1
    26   12   38 1
    27   12   39 1
    28   13   14 1
    29   13   40 1
    30   13   41 1
    31   14   15 2
    32   16   17 2
    33   16   18 am
    34   18   19 1
    35   18   42 1
    36   19   24 2
    37   19   20 1
    38   20   21 2
    39   20   43 1
    40   21   22 1
    41   21   25 1
    42   22   23 1
    43   22   24 1
    44   25   27 1
    45   25   26 1
    46   25   44 1
    47   26   27 1
    48   26   45 1
    49   26   46 1
    50   27   47 1
    51   27   48 1
@<TRIPOS>MOLECULE
CHEMBL373346
   48    51     0     0     0
SMALL
USER_CHARGES

@<TRIPOS>ATOM
      1 C1          0.2209    1.4991   -0.1445 C.3       1 <0>        -0.1468
      2 C2         -0.0237   -0.0024    0.0182 C.3       1 <0>        -0.0618
      3 C3          0.7108   -0.5020    1.2356 C.ar      1 <0>        -0.0691
      4 C4          2.0852   -0.3713    1.3141 C.ar      1 <0>        -0.0717
      5 C5          2.7612   -0.8277    2.4286 C.ar      1 <0>        -0.1030
      6 C6          2.0592   -1.4184    3.4710 C.ar      1 <0>         0.1308
      7 C7          0.6790   -1.5482    3.3891 C.ar      1 <0>        -0.1116
      8 C8          0.0083   -1.0850    2.2742 C.ar      1 <0>        -0.0967
      9 N1          2.7417   -1.8827    4.6023 N.am      1 <0>        -0.5159
     10 C9          2.8554   -3.2267    4.9233 C.2       1 <0>         0.0952
     11 C10         2.3512   -4.2292    4.2298 C.2       1 <0>        -0.2281
     12 C11         3.6545   -3.3510    6.2021 C.3       1 <0>        -0.0937
     13 C12         3.9860   -1.8932    6.5743 C.3       1 <0>        -0.1549
     14 C13         3.3524   -1.0720    5.4753 C.2       1 <0>         0.5204
     15 O1          3.3892    0.1378    5.3974 O.2       1 <0>        -0.5015
     16 C14         0.4772   -0.7283   -1.2038 C.2       1 <0>         0.5247
     17 O2          1.3453   -1.5686   -1.0967 O.2       1 <0>        -0.4877
     18 N2         -0.0393   -0.4436   -2.4157 N.am      1 <0>        -0.6509
     19 C15         0.4243   -1.1154   -3.5466 C.2       1 <0>         0.3064
     20 C16         1.3884   -2.0759   -3.5726 C.2       1 <0>        -0.2692
     21 C17         1.5489   -2.4852   -4.8992 C.2       1 <0>         0.1219
     22 N3          0.7179   -1.8019   -5.6440 N.2       1 <0>        -0.2786
     23 H1         -0.6941   -0.3136   -5.1025 H         1 <0>         0.4366
     24 N4         -0.0065   -0.9350   -4.8160 N.pl3     1 <0>        -0.4908
     25 C18         2.5144   -3.5338   -5.3884 C.3       1 <0>        -0.0852
     26 C19         3.6519   -3.9398   -4.4492 C.3       1 <0>        -0.1630
     27 C20         3.9480   -3.0900   -5.6866 C.3       1 <0>        -0.1632
     28 H2          1.2887    1.6825   -0.2637 H         1 <0>         0.0680
     29 H3         -0.3104    1.8605   -1.0250 H         1 <0>         0.0652
     30 H4         -0.1415    2.0241    0.7393 H         1 <0>         0.0791
     31 H5         -1.0916   -0.1858    0.1374 H         1 <0>         0.1141
     32 H6          2.6306    0.0879    0.5029 H         1 <0>         0.1269
     33 H7          3.8346   -0.7256    2.4892 H         1 <0>         0.1251
     34 H8          0.1303   -2.0076    4.1981 H         1 <0>         0.1288
     35 H9         -1.0656   -1.1817    2.2119 H         1 <0>         0.1307
     36 H10         1.8675   -4.0413    3.2826 H         1 <0>         0.1080
     37 H11         2.4222   -5.2379    4.6092 H         1 <0>         0.1259
     38 H12         3.0554   -3.8186    6.9835 H         1 <0>         0.1002
     39 H13         4.5686   -3.9187    6.0282 H         1 <0>         0.1008
     40 H14         3.5527   -1.6391    7.5417 H         1 <0>         0.1138
     41 H15         5.0650   -1.7392    6.5870 H         1 <0>         0.1135
     42 H16        -0.7335    0.2284   -2.5013 H         1 <0>         0.4125
     43 H17         1.9327   -2.4541   -2.7199 H         1 <0>         0.1739
     44 H18         2.0850   -4.3085   -6.0237 H         1 <0>         0.1216
     45 H19         3.7019   -3.4486   -3.4775 H         1 <0>         0.1013
     46 H20         3.9710   -4.9820   -4.4663 H         1 <0>         0.1021
     47 H21         4.4618   -3.5730   -6.5177 H         1 <0>         0.1014
     48 H22         4.1928   -2.0396   -5.5289 H         1 <0>         0.0949
@<TRIPOS>BOND
     1    1    2 1
     2    1   28 1
     3    1   29 1
     4    1   30 1
     5    2    3 1
     6    2   16 1
     7    2   31 1
     8    3    8 ar
     9    3    4 ar
    10    4    5 ar
    11    4   32 1
    12    5    6 ar
    13    5   33 1
    14    6    7 ar
    15    6    9 1
    16    7    8 ar
    17    7   34 1
    18    8   35 1
    19    9   14 am
    20    9   10 1
    21   10   11 2
    22   10   12 1
    23   11   36 1
    24   11   37 1
    25   12   13 1
    26   12   38 1
    27   12   39 1
    28   13   14 1
    29   13   40 1
    30   13   41 1
    31   14   15 2
    32   16   17 2
    33   16   18 am
    34   18   42 1
    35   18   19 1
    36   19   20 2
    37   19   24 1
    38   20   21 1
    39   20   43 1
    40   21   22 2
    41   21   25 1
    42   22   24 1
    43   23   24 1
    44   25   27 1
    45   25   26 1
    46   25   44 1
    47   26   27 1
    48   26   45 1
    49   26   46 1
    50   27   47 1
    51   27   48 1
@<TRIPOS>MOLECULE
CHEMBL373346
   48    51     0     0     0
SMALL
USER_CHARGES

@<TRIPOS>ATOM
      1 C1         -0.3194    1.4630   -0.1301 C.3       1 <0>        -0.1458
      2 C2         -0.0136   -0.0302    0.0033 C.3       1 <0>        -0.0637
      3 C3          0.6952   -0.5105   -1.2369 C.ar      1 <0>        -0.0669
      4 C4          1.9097    0.0445   -1.5961 C.ar      1 <0>        -0.0713
      5 C5          2.5620   -0.3938   -2.7318 C.ar      1 <0>        -0.1040
      6 C6          1.9969   -1.3930   -3.5133 C.ar      1 <0>         0.1291
      7 C7          0.7771   -1.9483   -3.1499 C.ar      1 <0>        -0.1120
      8 C8          0.1324   -1.5093   -2.0101 C.ar      1 <0>        -0.0971
      9 N1          2.6556   -1.8393   -4.6658 N.am      1 <0>        -0.5163
     10 C9          2.1789   -1.6161   -5.9484 C.2       1 <0>         0.0982
     11 C10         1.0699   -0.9715   -6.2564 C.2       1 <0>        -0.2318
     12 C11         3.1435   -2.2357   -6.9358 C.3       1 <0>        -0.0941
     13 C12         4.2424   -2.8470   -6.0455 C.3       1 <0>        -0.1550
     14 C13         3.8093   -2.5178   -4.6357 C.2       1 <0>         0.5189
     15 O1          4.4137   -2.8239   -3.6297 O.2       1 <0>        -0.4975
     16 C14         0.8671   -0.2573    1.2049 C.2       1 <0>         0.5250
     17 O2          1.9625   -0.7597    1.0678 O.2       1 <0>        -0.4957
     18 N2          0.4375    0.0980    2.4320 N.am      1 <0>        -0.6355
     19 C15         1.2565   -0.1132    3.5496 C.2       1 <0>         0.3033
     20 C16         2.5423   -0.6770    3.5351 C.2       1 <0>        -0.2590
     21 C17         2.9962   -0.7081    4.8086 C.2       1 <0>         0.1311
     22 N3          2.0380   -0.1852    5.6024 N.pl3     1 <0>        -0.4672
     23 H1          2.0899   -0.0814    6.5655 H         1 <0>         0.4391
     24 N4          0.9580    0.1866    4.7917 N.2       1 <0>        -0.3185
     25 C18         4.3340   -1.2338    5.2612 C.3       1 <0>        -0.0989
     26 C19         4.4006   -1.9088    6.6327 C.3       1 <0>        -0.1701
     27 C20         5.0136   -0.5214    6.4323 C.3       1 <0>        -0.1697
     28 H2          0.6124    2.0151   -0.2529 H         1 <0>         0.0669
     29 H3         -0.9564    1.6272   -0.9992 H         1 <0>         0.0774
     30 H4         -0.8320    1.8104    0.7669 H         1 <0>         0.0673
     31 H5         -0.9453   -0.5824    0.1261 H         1 <0>         0.1139
     32 H6          2.3485    0.8219   -0.9881 H         1 <0>         0.1272
     33 H7          3.5104    0.0404   -3.0121 H         1 <0>         0.1243
     34 H8          0.3349   -2.7253   -3.7558 H         1 <0>         0.1281
     35 H9         -0.8141   -1.9440   -1.7244 H         1 <0>         0.1308
     36 H10         0.4914   -0.4913   -5.4811 H         1 <0>         0.1073
     37 H11         0.7406   -0.9240   -7.2839 H         1 <0>         0.1254
     38 H12         2.6480   -3.0118   -7.5191 H         1 <0>         0.1002
     39 H13         3.5629   -1.4724   -7.5912 H         1 <0>         0.1006
     40 H14         4.2926   -3.9263   -6.1894 H         1 <0>         0.1136
     41 H15         5.2070   -2.3877   -6.2615 H         1 <0>         0.1133
     42 H16        -0.4386    0.4998    2.5417 H         1 <0>         0.4160
     43 H17         3.0745   -1.0242    2.6618 H         1 <0>         0.1730
     44 H18         4.9744   -1.6302    4.4732 H         1 <0>         0.1344
     45 H19         3.4768   -1.9727    7.2076 H         1 <0>         0.0947
     46 H20         5.0848   -2.7496    6.7471 H         1 <0>         0.1081
     47 H21         6.1011   -0.4493    6.4150 H         1 <0>         0.1080
     48 H22         4.4930    0.3276    6.8754 H         1 <0>         0.0948
@<TRIPOS>BOND
     1    1    2 1
     2    1   28 1
     3    1   29 1
     4    1   30 1
     5    2    3 1
     6    2   16 1
     7    2   31 1
     8    3    8 ar
     9    3    4 ar
    10    4    5 ar
    11    4   32 1
    12    5    6 ar
    13    5   33 1
    14    6    7 ar
    15    6    9 1
    16    7    8 ar
    17    7   34 1
    18    8   35 1
    19    9   14 am
    20    9   10 1
    21   10   11 2
    22   10   12 1
    23   11   36 1
    24   11   37 1
    25   12   13 1
    26   12   38 1
    27   12   39 1
    28   13   14 1
    29   13   40 1
    30   13   41 1
    31   14   15 2
    32   16   17 2
    33   16   18 am
    34   18   19 1
    35   18   42 1
    36   19   24 2
    37   19   20 1
    38   20   21 2
    39   20   43 1
    40   21   22 1
    41   21   25 1
    42   22   23 1
    43   22   24 1
    44   25   27 1
    45   25   26 1
    46   25   44 1
    47   26   27 1
    48   26   45 1
    49   26   46 1
    50   27   47 1
    51   27   48 1
@<TRIPOS>MOLECULE
CHEMBL373346
   48    51     0     0     0
SMALL
USER_CHARGES

@<TRIPOS>ATOM
      1 C1         -0.3194    1.4630   -0.1301 C.3       1 <0>        -0.1458
      2 C2         -0.0136   -0.0302    0.0033 C.3       1 <0>        -0.0617
      3 C3          0.6952   -0.5105   -1.2369 C.ar      1 <0>        -0.0698
      4 C4          1.9097    0.0445   -1.5961 C.ar      1 <0>        -0.0713
      5 C5          2.5620   -0.3938   -2.7318 C.ar      1 <0>        -0.1034
      6 C6          1.9969   -1.3930   -3.5133 C.ar      1 <0>         0.1311
      7 C7          0.7771   -1.9483   -3.1499 C.ar      1 <0>        -0.1118
      8 C8          0.1324   -1.5093   -2.0101 C.ar      1 <0>        -0.0966
      9 N1          2.6556   -1.8393   -4.6658 N.am      1 <0>        -0.5169
     10 C9          2.1789   -1.6161   -5.9484 C.2       1 <0>         0.0985
     11 C10         1.0699   -0.9715   -6.2564 C.2       1 <0>        -0.2321
     12 C11         3.1435   -2.2357   -6.9358 C.3       1 <0>        -0.0941
     13 C12         4.2424   -2.8470   -6.0455 C.3       1 <0>        -0.1549
     14 C13         3.8093   -2.5178   -4.6357 C.2       1 <0>         0.5189
     15 O1          4.4137   -2.8239   -3.6297 O.2       1 <0>        -0.4967
     16 C14         0.8671   -0.2573    1.2049 C.2       1 <0>         0.5226
     17 O2          1.9625   -0.7597    1.0678 O.2       1 <0>        -0.4853
     18 N2          0.4375    0.0980    2.4320 N.am      1 <0>        -0.6509
     19 C15         1.2525   -0.1122    3.5441 C.2       1 <0>         0.3060
     20 C16         2.4971   -0.6631    3.5365 C.2       1 <0>        -0.2689
     21 C17         2.9614   -0.6896    4.8544 C.2       1 <0>         0.1224
     22 N3          2.0377   -0.1769    5.6264 N.2       1 <0>        -0.2789
     23 H1          0.1294    0.6100    5.1353 H         1 <0>         0.4364
     24 N4          0.9521    0.1998    4.8255 N.pl3     1 <0>        -0.4911
     25 C18         4.2974   -1.2187    5.3087 C.3       1 <0>        -0.0855
     26 C19         5.0700   -2.1137    4.3377 C.3       1 <0>        -0.1631
     27 C20         4.4083   -2.7210    5.5763 C.3       1 <0>        -0.1632
     28 H2          0.6124    2.0151   -0.2529 H         1 <0>         0.0679
     29 H3         -0.9564    1.6272   -0.9992 H         1 <0>         0.0787
     30 H4         -0.8320    1.8104    0.7669 H         1 <0>         0.0651
     31 H5         -0.9453   -0.5824    0.1261 H         1 <0>         0.1139
     32 H6          2.3485    0.8219   -0.9881 H         1 <0>         0.1271
     33 H7          3.5104    0.0404   -3.0121 H         1 <0>         0.1251
     34 H8          0.3349   -2.7253   -3.7558 H         1 <0>         0.1287
     35 H9         -0.8141   -1.9440   -1.7244 H         1 <0>         0.1306
     36 H10         0.4914   -0.4913   -5.4811 H         1 <0>         0.1069
     37 H11         0.7406   -0.9240   -7.2839 H         1 <0>         0.1256
     38 H12         2.6480   -3.0118   -7.5191 H         1 <0>         0.1004
     39 H13         3.5629   -1.4724   -7.5912 H         1 <0>         0.1008
     40 H14         4.2926   -3.9263   -6.1894 H         1 <0>         0.1139
     41 H15         5.2070   -2.3877   -6.2615 H         1 <0>         0.1136
     42 H16        -0.4386    0.4998    2.5417 H         1 <0>         0.4121
     43 H17         3.0307   -1.0170    2.6668 H         1 <0>         0.1740
     44 H18         4.8758   -0.5499    5.9461 H         1 <0>         0.1216
     45 H19         4.6121   -2.3198    3.3703 H         1 <0>         0.1017
     46 H20         6.1571   -2.0337    4.3361 H         1 <0>         0.1023
     47 H21         5.0599   -3.0406    6.3895 H         1 <0>         0.1014
     48 H22         3.5150   -3.3267    5.4238 H         1 <0>         0.0948
@<TRIPOS>BOND
     1    1    2 1
     2    1   28 1
     3    1   29 1
     4    1   30 1
     5    2    3 1
     6    2   16 1
     7    2   31 1
     8    3    8 ar
     9    3    4 ar
    10    4    5 ar
    11    4   32 1
    12    5    6 ar
    13    5   33 1
    14    6    7 ar
    15    6    9 1
    16    7    8 ar
    17    7   34 1
    18    8   35 1
    19    9   14 am
    20    9   10 1
    21   10   11 2
    22   10   12 1
    23   11   36 1
    24   11   37 1
    25   12   13 1
    26   12   38 1
    27   12   39 1
    28   13   14 1
    29   13   40 1
    30   13   41 1
    31   14   15 2
    32   16   17 2
    33   16   18 am
    34   18   42 1
    35   18   19 1
    36   19   20 2
    37   19   24 1
    38   20   21 1
    39   20   43 1
    40   21   22 2
    41   21   25 1
    42   22   24 1
    43   23   24 1
    44   25   27 1
    45   25   26 1
    46   25   44 1
    47   26   27 1
    48   26   45 1
    49   26   46 1
    50   27   47 1
    51   27   48 1
@<TRIPOS>MOLECULE
CHEMBL491447
   48    52     0     0     0
SMALL
USER_CHARGES

@<TRIPOS>ATOM
      1 C1         -0.0178    1.4608    0.0101 C.3       1 <0>         0.0660
      2 N1          0.0021   -0.0041    0.0020 N.pl3     1 <0>        -0.4751
      3 C2          0.0079   -0.7750   -1.1188 C.2       1 <0>         0.1054
      4 C3          0.0277   -2.0938   -0.7692 C.2       1 <0>        -0.1482
      5 C4          0.0348   -2.1368    0.7038 C.ar      1 <0>        -0.0735
      6 C5          0.0236   -0.7982    1.1300 C.ar      1 <0>         0.1022
      7 C6          0.0319   -0.5159    2.4917 C.ar      1 <0>        -0.1003
      8 C7          0.0543   -1.5457    3.4075 C.ar      1 <0>        -0.0743
      9 C8          0.0688   -2.8669    2.9853 C.ar      1 <0>        -0.1362
     10 C9          0.0529   -3.1675    1.6405 C.ar      1 <0>        -0.0744
     11 C10         0.0168    0.9146    2.9656 C.3       1 <0>         0.1197
     12 O1          0.0291    0.9433    4.3943 O.3       1 <0>        -0.5649
     13 C11         0.0390   -3.2470   -1.6838 C.2       1 <0>        -0.0084
     14 C12         1.1158   -3.7120   -2.4288 C.2       1 <0>        -0.0492
     15 C13         0.6199   -4.8837   -3.1787 C.2       1 <0>         0.5597
     16 O2          1.2741   -5.5635   -3.9442 O.2       1 <0>        -0.4459
     17 N2         -0.6749   -5.0732   -2.8734 N.am      1 <0>        -0.6889
     18 C14        -1.0916   -4.1494   -1.9909 C.2       1 <0>         0.5552
     19 O3         -2.2107   -4.0673   -1.5258 O.2       1 <0>        -0.4406
     20 C15         2.4775   -3.1496   -2.4635 C.2       1 <0>        -0.1377
     21 C16         3.4397   -3.2688   -1.5089 C.2       1 <0>         0.0626
     22 O4          4.5487   -2.6212   -1.8978 O.3       1 <0>        -0.1818
     23 C17         4.3824   -2.0495   -3.1083 C.ar      1 <0>         0.0508
     24 C18         3.0819   -2.3461   -3.5439 C.ar      1 <0>        -0.0962
     25 C19         2.6327   -1.8838   -4.7767 C.ar      1 <0>        -0.0739
     26 C20         3.4740   -1.1343   -5.5713 C.ar      1 <0>        -0.1079
     27 C21         4.7607   -0.8430   -5.1448 C.ar      1 <0>        -0.0680
     28 C22         5.2138   -1.2892   -3.9212 C.ar      1 <0>        -0.0806
     29 C23         5.6704   -0.0236   -6.0235 C.3       1 <0>         0.1183
     30 O5          5.5086    1.3624   -5.7155 O.3       1 <0>        -0.5675
     31 H1          1.0048    1.8381    0.0023 H         1 <0>         0.0752
     32 H2         -0.5450    1.8219   -0.8730 H         1 <0>         0.0887
     33 H3         -0.5280    1.8123    0.9069 H         1 <0>         0.0868
     34 H4         -0.0018   -0.4001   -2.1316 H         1 <0>         0.1750
     35 H5          0.0610   -1.3218    4.4640 H         1 <0>         0.1376
     36 H6          0.0863   -3.6639    3.7139 H         1 <0>         0.1275
     37 H7          0.0654   -4.1970    1.3143 H         1 <0>         0.1206
     38 H8          0.8965    1.4329    2.5842 H         1 <0>         0.0558
     39 H9         -0.8832    1.4090    2.6000 H         1 <0>         0.0559
     40 H10         0.0204    1.8343    4.7698 H         1 <0>         0.3850
     41 H11        -1.2303   -5.7808   -3.2363 H         1 <0>         0.4307
     42 H12         3.3276   -3.8041   -0.5776 H         1 <0>         0.2155
     43 H13         1.6308   -2.1111   -5.1096 H         1 <0>         0.1275
     44 H14         3.1298   -0.7732   -6.5292 H         1 <0>         0.1327
     45 H15         6.2186   -1.0575   -3.6000 H         1 <0>         0.1353
     46 H16         6.7055   -0.3164   -5.8481 H         1 <0>         0.0591
     47 H17         5.4165   -0.1954   -7.0696 H         1 <0>         0.0611
     48 H18         6.0650    1.9504   -6.2444 H         1 <0>         0.3838
@<TRIPOS>BOND
     1    1    2 1
     2    1   31 1
     3    1   32 1
     4    1   33 1
     5    2    6 1
     6    2    3 1
     7    3    4 2
     8    3   34 1
     9    4    5 1
    10    4   13 1
    11    5   10 ar
    12    5    6 ar
    13    6    7 ar
    14    7    8 ar
    15    7   11 1
    16    8    9 ar
    17    8   35 1
    18    9   10 ar
    19    9   36 1
    20   10   37 1
    21   11   12 1
    22   11   38 1
    23   11   39 1
    24   12   40 1
    25   13   18 1
    26   13   14 2
    27   14   15 1
    28   14   20 1
    29   15   16 2
    30   15   17 am
    31   17   18 am
    32   17   41 1
    33   18   19 2
    34   20   24 1
    35   20   21 2
    36   21   22 1
    37   21   42 1
    38   22   23 1
    39   23   28 ar
    40   23   24 ar
    41   24   25 ar
    42   25   26 ar
    43   25   43 1
    44   26   27 ar
    45   26   44 1
    46   27   28 ar
    47   27   29 1
    48   28   45 1
    49   29   30 1
    50   29   46 1
    51   29   47 1
    52   30   48 1
@<TRIPOS>MOLECULE
CHEMBL412267
   47    50     0     0     0
SMALL
USER_CHARGES

@<TRIPOS>ATOM
      1 C1         -0.9103    1.1984   -1.3267 C.3       1 <0>         0.0325
      2 O1         -0.6621   -0.1615   -0.9648 O.3       1 <0>        -0.3011
      3 C2          0.5169   -0.7005   -1.3661 C.2       1 <0>         0.1210
      4 C3          1.5234   -0.0556   -2.0971 C.2       1 <0>        -0.2818
      5 C4          2.5322   -0.9379   -2.2915 C.2       1 <0>         0.0847
      6 N1          2.2082   -2.1223   -1.7122 N.pl3     1 <0>        -0.5061
      7 H1          2.7604   -2.9197   -1.7075 H         1 <0>         0.4284
      8 C5          0.9610   -2.0002   -1.1246 C.2       1 <0>        -0.0514
      9 C6          0.2717   -2.9979   -0.4200 C.2       1 <0>         0.1242
     10 C7          0.3845   -4.3254   -0.8082 C.2       1 <0>        -0.2375
     11 C8         -0.1448   -5.5078   -0.1018 C.ar      1 <0>        -0.0396
     12 C9          0.2177   -6.6191   -0.8745 C.ar      1 <0>         0.1281
     13 C10        -0.1490   -7.8907   -0.4532 C.ar      1 <0>        -0.0922
     14 C11        -0.8649   -8.0601    0.7172 C.ar      1 <0>        -0.1210
     15 C12        -1.2289   -6.9708    1.4881 C.ar      1 <0>         0.1058
     16 C13        -0.8715   -5.6815    1.0860 C.ar      1 <0>         0.0227
     17 C14        -1.2437   -4.5481    1.8781 C.1       1 <0>        -0.1150
     18 C15        -1.5488   -3.6189    2.5275 C.1       1 <0>        -0.1680
     19 C16        -1.9313   -2.4538    3.3418 C.3       1 <0>         0.2500
     20 C17        -0.6713   -1.7132    3.8004 C.3       1 <0>        -0.1773
     21 C18         0.1578   -2.6384    4.6949 C.3       1 <0>         0.0614
     22 O2         -0.6361   -3.0630    5.8047 O.3       1 <0>        -0.3767
     23 C19        -1.8032   -3.8019    5.4384 C.3       1 <0>         0.0610
     24 C20        -2.7111   -2.9234    4.5738 C.3       1 <0>        -0.1392
     25 O3         -2.7482   -1.5753    2.5652 O.3       1 <0>        -0.5406
     26 F1         -1.9285   -7.1536    2.6293 F         1 <0>        -0.1271
     27 N2          0.9228   -6.1666   -1.9843 N.am      1 <0>        -0.6490
     28 C21         1.0287   -4.8272   -1.9719 C.2       1 <0>         0.5627
     29 O4          1.5888   -4.1527   -2.8186 O.2       1 <0>        -0.5191
     30 H2         -0.1363    1.8354   -0.8985 H         1 <0>         0.0571
     31 H3         -0.8994    1.2933   -2.4125 H         1 <0>         0.0563
     32 H4         -1.8845    1.5040   -0.9450 H         1 <0>         0.1025
     33 H5          1.4989    0.9666   -2.4448 H         1 <0>         0.1489
     34 H6          3.4493   -0.7320   -2.8235 H         1 <0>         0.1770
     35 H7         -0.3470   -2.7330    0.4247 H         1 <0>         0.1471
     36 H8          0.1264   -8.7521   -1.0436 H         1 <0>         0.1437
     37 H9         -1.1436   -9.0546    1.0331 H         1 <0>         0.1518
     38 H10        -0.0821   -1.4236    2.9304 H         1 <0>         0.0815
     39 H11        -0.9559   -0.8231    4.3615 H         1 <0>         0.0951
     40 H12         0.4761   -3.5090    4.1215 H         1 <0>         0.0527
     41 H13         1.0343   -2.1024    5.0590 H         1 <0>         0.1011
     42 H14        -1.5105   -4.6877    4.8747 H         1 <0>         0.0554
     43 H15        -2.3393   -4.1040    6.3380 H         1 <0>         0.1053
     44 H16        -3.0369   -2.0577    5.1504 H         1 <0>         0.0931
     45 H17        -3.5806   -3.4992    4.2568 H         1 <0>         0.0869
     46 H18        -2.3156   -1.2368    1.7694 H         1 <0>         0.3842
     47 H19         1.2857   -6.7406   -2.6769 H         1 <0>         0.4203
@<TRIPOS>BOND
     1    1    2 1
     2    1   30 1
     3    1   31 1
     4    1   32 1
     5    2    3 1
     6    3    8 2
     7    3    4 1
     8    4    5 2
     9    4   33 1
    10    5    6 1
    11    5   34 1
    12    6    7 1
    13    6    8 1
    14    8    9 1
    15    9   10 2
    16    9   35 1
    17   10   28 1
    18   10   11 1
    19   11   16 ar
    20   11   12 ar
    21   12   13 ar
    22   12   27 1
    23   13   14 ar
    24   13   36 1
    25   14   15 ar
    26   14   37 1
    27   15   16 ar
    28   15   26 1
    29   16   17 1
    30   17   18 3
    31   18   19 1
    32   19   24 1
    33   19   20 1
    34   19   25 1
    35   20   21 1
    36   20   38 1
    37   20   39 1
    38   21   22 1
    39   21   40 1
    40   21   41 1
    41   22   23 1
    42   23   24 1
    43   23   42 1
    44   23   43 1
    45   24   44 1
    46   24   45 1
    47   25   46 1
    48   27   28 am
    49   27   47 1
    50   28   29 2
@<TRIPOS>MOLECULE
CHEMBL90941
   60    63     0     0     0
SMALL
USER_CHARGES

@<TRIPOS>ATOM
      1 C1         -0.0187    1.5258    0.0104 C.3       1 <0>        -0.1628
      2 C2          0.0021   -0.0041    0.0020 C.3       1 <0>         0.1353
      3 C3          0.7421   -0.5109    1.2415 C.3       1 <0>        -0.1625
      4 N1         -1.3723   -0.5112    0.0124 N.pl3     1 <0>        -0.4708
      5 C4         -2.3128   -0.2749    0.9723 C.2       1 <0>         0.2310
      6 N2         -3.4234   -0.8781    0.6638 N.2       1 <0>        -0.4542
      7 C5         -3.2674   -1.5381   -0.5102 C.ar      1 <0>        -0.1570
      8 C6         -1.9517   -1.3058   -0.9441 C.ar      1 <0>         0.3484
      9 N3         -1.5421   -1.8450   -2.0880 N.ar      1 <0>        -0.6148
     10 C7         -2.3616   -2.5894   -2.8127 C.ar      1 <0>         0.6276
     11 N4         -3.6124   -2.8321   -2.4423 N.ar      1 <0>        -0.6251
     12 C8         -4.1011   -2.3388   -1.3098 C.ar      1 <0>         0.5411
     13 N5         -5.4072   -2.5960   -0.9325 N.pl3     1 <0>        -0.6906
     14 C9         -6.2626   -3.4328   -1.7777 C.3       1 <0>         0.1709
     15 C10        -7.6256   -3.5562   -1.1470 C.ar      1 <0>        -0.1075
     16 C11        -7.8825   -4.5844   -0.2576 C.ar      1 <0>        -0.0902
     17 C12        -9.1281   -4.7030    0.3234 C.ar      1 <0>        -0.1086
     18 C13       -10.1302   -3.7826    0.0125 C.ar      1 <0>         0.0047
     19 C14        -9.8644   -2.7474   -0.8851 C.ar      1 <0>        -0.1010
     20 C15        -8.6130   -2.6373   -1.4554 C.ar      1 <0>        -0.0913
     21 C16       -11.4675   -3.9039    0.6309 C.2       1 <0>        -0.1126
     22 C17       -12.5738   -3.1165    0.4555 C.2       1 <0>        -0.1462
     23 C18       -13.7244   -3.4275    1.1465 C.2       1 <0>        -0.1560
     24 C19       -13.7271   -4.5011    1.9776 C.2       1 <0>        -0.1723
     25 S1        -12.0625   -5.1198    1.7950 S.3       1 <0>         0.0574
     26 N6         -1.8979   -3.1336   -3.9991 N.pl3     1 <0>        -0.5641
     27 C20        -2.7840   -3.9617   -4.8209 C.3       1 <0>         0.1401
     28 C21        -3.5317   -3.0742   -5.8180 C.3       1 <0>         0.0593
     29 O1         -2.5992   -2.4953   -6.7330 O.3       1 <0>        -0.5711
     30 C22        -0.5213   -2.8812   -4.4320 C.3       1 <0>         0.1404
     31 C23         0.3972   -3.9691   -3.8718 C.3       1 <0>         0.0600
     32 O2          0.0461   -5.2304   -4.4444 O.3       1 <0>        -0.5706
     33 H1          1.0039    1.9031    0.0027 H         1 <0>         0.0790
     34 H2         -0.5459    1.8868   -0.8726 H         1 <0>         0.0629
     35 H3         -0.5289    1.8773    0.9072 H         1 <0>         0.0654
     36 H4          0.5123   -0.3556   -0.8948 H         1 <0>         0.1053
     37 H5          0.7568   -1.6008    1.2356 H         1 <0>         0.0625
     38 H6          1.7647   -0.1336    1.2338 H         1 <0>         0.0789
     39 H7          0.2319   -0.1594    2.1383 H         1 <0>         0.0654
     40 H8         -2.1580    0.3239    1.8577 H         1 <0>         0.2131
     41 H9         -5.7566   -2.2223   -0.1084 H         1 <0>         0.4195
     42 H10        -6.3581   -2.9762   -2.7629 H         1 <0>         0.0784
     43 H11        -5.8176   -4.4228   -1.8777 H         1 <0>         0.0788
     44 H12        -7.1062   -5.2960   -0.0179 H         1 <0>         0.1297
     45 H13        -9.3276   -5.5065    1.0170 H         1 <0>         0.1262
     46 H14       -10.6356   -2.0321   -1.1301 H         1 <0>         0.1287
     47 H15        -8.4047   -1.8344   -2.1470 H         1 <0>         0.1296
     48 H16       -12.5449   -2.2676   -0.2116 H         1 <0>         0.1353
     49 H17       -14.6128   -2.8247    1.0289 H         1 <0>         0.1369
     50 H18       -14.5307   -4.8844    2.5889 H         1 <0>         0.1883
     51 H19        -2.1925   -4.6992   -5.3634 H         1 <0>         0.0926
     52 H20        -3.5022   -4.4725   -4.1795 H         1 <0>         0.0975
     53 H21        -4.2551   -3.6757   -6.3684 H         1 <0>         0.0530
     54 H22        -4.0524   -2.2820   -5.2800 H         1 <0>         0.0468
     55 H23        -3.0042   -1.9190   -7.3954 H         1 <0>         0.3764
     56 H24        -0.4751   -2.8921   -5.5210 H         1 <0>         0.0925
     57 H25        -0.1975   -1.9075   -4.0644 H         1 <0>         0.0960
     58 H26         1.4323   -3.7334   -4.1189 H         1 <0>         0.0521
     59 H27         0.2842   -4.0177   -2.7887 H         1 <0>         0.0461
     60 H28         0.5886   -5.9681   -4.1337 H         1 <0>         0.3764
@<TRIPOS>BOND
     1    1    2 1
     2    1   33 1
     3    1   34 1
     4    1   35 1
     5    2    3 1
     6    2    4 1
     7    2   36 1
     8    3   37 1
     9    3   38 1
    10    3   39 1
    11    4    8 1
    12    4    5 1
    13    5    6 2
    14    5   40 1
    15    6    7 1
    16    7   12 ar
    17    7    8 ar
    18    8    9 ar
    19    9   10 ar
    20   10   11 ar
    21   10   26 1
    22   11   12 ar
    23   12   13 1
    24   13   14 1
    25   13   41 1
    26   14   15 1
    27   14   42 1
    28   14   43 1
    29   15   20 ar
    30   15   16 ar
    31   16   17 ar
    32   16   44 1
    33   17   18 ar
    34   17   45 1
    35   18   19 ar
    36   18   21 1
    37   19   20 ar
    38   19   46 1
    39   20   47 1
    40   21   25 1
    41   21   22 2
    42   22   23 1
    43   22   48 1
    44   23   24 2
    45   23   49 1
    46   24   25 1
    47   24   50 1
    48   26   27 1
    49   26   30 1
    50   27   28 1
    51   27   51 1
    52   27   52 1
    53   28   29 1
    54   28   53 1
    55   28   54 1
    56   29   55 1
    57   30   31 1
    58   30   56 1
    59   30   57 1
    60   31   32 1
    61   31   58 1
    62   31   59 1
    63   32   60 1
@<TRIPOS>MOLECULE
CHEMBL436078
   49    53     0     0     0
SMALL
USER_CHARGES

@<TRIPOS>ATOM
      1 C1          0.4665    1.5259   -0.3215 C.3       1 <0>         0.0237
      2 O1          0.5381    0.0987   -0.3268 O.3       1 <0>        -0.3117
      3 C2          1.0184   -0.4902   -1.4521 C.ar      1 <0>         0.1520
      4 C3          1.4180    0.2936   -2.5277 C.ar      1 <0>        -0.2104
      5 C4          1.9058   -0.2996   -3.6712 C.ar      1 <0>        -0.0512
      6 C5          1.9989   -1.6920   -3.7485 C.ar      1 <0>        -0.1018
      7 C6          1.5962   -2.4765   -2.6641 C.ar      1 <0>        -0.0253
      8 C7          1.1142   -1.8747   -1.5227 C.ar      1 <0>        -0.1501
      9 C8          2.5202   -2.3318   -4.9713 C.2       1 <0>         0.2426
     10 C9          1.9746   -3.4294   -5.6229 C.2       1 <0>        -0.3322
     11 C10         2.8329   -3.6983   -6.7795 C.2       1 <0>         0.1279
     12 N1          3.7923   -2.8063   -6.7688 N.2       1 <0>        -0.2343
     13 N2          3.6237   -1.9518   -5.6748 N.pl3     1 <0>        -0.4655
     14 H1          4.2028   -1.2067   -5.4505 H         1 <0>         0.4484
     15 C11         2.2677   -4.8707   -7.4926 C.ar      1 <0>         0.0434
     16 C12         2.6795   -5.5405   -8.6377 C.ar      1 <0>        -0.1100
     17 C13         1.9622   -6.6288   -9.1059 C.ar      1 <0>        -0.0601
     18 C14         0.8320   -7.0610   -8.4428 C.ar      1 <0>        -0.1365
     19 C15         0.4005   -6.4059   -7.2940 C.ar      1 <0>         0.2446
     20 C16         1.1176   -5.3041   -6.8100 C.ar      1 <0>        -0.1973
     21 C17         0.9005   -4.4317   -5.6384 C.2       1 <0>         0.4930
     22 O2         -0.0050   -4.5260   -4.8311 O.2       1 <0>        -0.4479
     23 N3         -0.7406   -6.8436   -6.6276 N.am      1 <0>        -0.6715
     24 C18        -1.1800   -8.1058   -6.8014 C.2       1 <0>         0.7070
     25 O3         -0.5234   -8.8936   -7.4544 O.2       1 <0>        -0.5479
     26 N4         -2.3472   -8.4948   -6.2511 N.am      1 <0>        -0.6778
     27 C19        -2.7528   -9.8310   -6.3423 C.ar      1 <0>         0.1587
     28 C20        -4.1019  -10.1430   -6.4473 C.ar      1 <0>        -0.1445
     29 C21        -4.4990  -11.4628   -6.5370 C.ar      1 <0>        -0.0998
     30 C22        -3.5548  -12.4729   -6.5224 C.ar      1 <0>        -0.1338
     31 C23        -2.2107  -12.1655   -6.4175 C.ar      1 <0>        -0.0996
     32 C24        -1.8067  -10.8475   -6.3336 C.ar      1 <0>        -0.1195
     33 H2          1.4642    1.9403   -0.4660 H         1 <0>         0.0587
     34 H3         -0.1861    1.8599   -1.1281 H         1 <0>         0.0590
     35 H4          0.0666    1.8660    0.6338 H         1 <0>         0.1045
     36 H5          1.3457    1.3695   -2.4671 H         1 <0>         0.1368
     37 H6          2.2155    0.3103   -4.5069 H         1 <0>         0.1291
     38 H7          1.6664   -3.5528   -2.7196 H         1 <0>         0.1379
     39 H8          0.8066   -2.4799   -0.6827 H         1 <0>         0.1411
     40 H9          3.5624   -5.2110   -9.1653 H         1 <0>         0.1382
     41 H10         2.2898   -7.1431   -9.9973 H         1 <0>         0.1429
     42 H11         0.2802   -7.9106   -8.8171 H         1 <0>         0.1676
     43 H12        -1.2195   -6.2402   -6.0382 H         1 <0>         0.4198
     44 H13        -2.9061   -7.8485   -5.7920 H         1 <0>         0.4114
     45 H14        -4.8398   -9.3545   -6.4584 H         1 <0>         0.1258
     46 H15        -5.5481  -11.7061   -6.6184 H         1 <0>         0.1273
     47 H16        -3.8678  -13.5042   -6.5927 H         1 <0>         0.1241
     48 H17        -1.4757  -12.9568   -6.4060 H         1 <0>         0.1266
     49 H18        -0.7564  -10.6078   -6.2569 H         1 <0>         0.1365
@<TRIPOS>BOND
     1    1    2 1
     2    1   33 1
     3    1   34 1
     4    1   35 1
     5    2    3 1
     6    3    8 ar
     7    3    4 ar
     8    4    5 ar
     9    4   36 1
    10    5    6 ar
    11    5   37 1
    12    6    7 ar
    13    6    9 1
    14    7    8 ar
    15    7   38 1
    16    8   39 1
    17    9   13 1
    18    9   10 2
    19   10   21 1
    20   10   11 1
    21   11   12 2
    22   11   15 1
    23   12   13 1
    24   13   14 1
    25   15   20 ar
    26   15   16 ar
    27   16   17 ar
    28   16   40 1
    29   17   18 ar
    30   17   41 1
    31   18   19 ar
    32   18   42 1
    33   19   20 ar
    34   19   23 1
    35   20   21 1
    36   21   22 2
    37   23   24 am
    38   23   43 1
    39   24   25 2
    40   24   26 am
    41   26   27 1
    42   26   44 1
    43   27   32 ar
    44   27   28 ar
    45   28   29 ar
    46   28   45 1
    47   29   30 ar
    48   29   46 1
    49   30   31 ar
    50   30   47 1
    51   31   32 ar
    52   31   48 1
    53   32   49 1
@<TRIPOS>MOLECULE
CHEMBL436078
   49    53     0     0     0
SMALL
USER_CHARGES

@<TRIPOS>ATOM
      1 C1         -0.1104    1.4673   -0.7927 C.3       1 <0>         0.0249
      2 O1         -0.0577    0.0483   -0.6323 O.3       1 <0>        -0.3146
      3 C2          0.4921   -0.6672   -1.6478 C.ar      1 <0>         0.1443
      4 C3          0.9761   -0.0134   -2.7732 C.ar      1 <0>        -0.2134
      5 C4          1.5347   -0.7366   -3.8056 C.ar      1 <0>        -0.0421
      6 C5          1.6134   -2.1263   -3.7186 C.ar      1 <0>        -0.0734
      7 C6          1.1264   -2.7798   -2.5870 C.ar      1 <0>        -0.0349
      8 C7          0.5741   -2.0503   -1.5557 C.ar      1 <0>        -0.1526
      9 C8          2.2128   -2.9069   -4.8267 C.2       1 <0>         0.2016
     10 C9          2.9813   -4.0879   -4.6933 C.2       1 <0>        -0.3137
     11 C10         3.3440   -4.4906   -5.9717 C.2       1 <0>         0.1586
     12 N1          2.8203   -3.5963   -6.8378 N.pl3     1 <0>        -0.4242
     13 N2          2.1201   -2.6277   -6.1103 N.2       1 <0>        -0.2707
     14 H1          2.9117   -3.6228   -7.8031 H         1 <0>         0.4473
     15 C11         4.1531   -5.7292   -5.8734 C.ar      1 <0>         0.0133
     16 C12         4.7519   -6.5263   -6.8377 C.ar      1 <0>        -0.1120
     17 C13         5.4679   -7.6563   -6.4634 C.ar      1 <0>        -0.0625
     18 C14         5.5922   -7.9988   -5.1356 C.ar      1 <0>        -0.1315
     19 C15         4.9970   -7.2099   -4.1484 C.ar      1 <0>         0.2500
     20 C16         4.2766   -6.0734   -4.5144 C.ar      1 <0>        -0.1989
     21 C17         3.5450   -5.0542   -3.7288 C.2       1 <0>         0.4865
     22 O2          3.4296   -5.0193   -2.5196 O.2       1 <0>        -0.4355
     23 N3          5.1218   -7.5564   -2.8073 N.am      1 <0>        -0.6710
     24 C18         6.1230   -8.3670   -2.4112 C.2       1 <0>         0.7075
     25 O3          6.9781   -8.7093   -3.2046 O.2       1 <0>        -0.5476
     26 N4          6.1762   -8.7982   -1.1353 N.am      1 <0>        -0.6768
     27 C19         7.2696   -9.5535   -0.6971 C.ar      1 <0>         0.1578
     28 C20         8.5344   -9.3139   -1.2179 C.ar      1 <0>        -0.1195
     29 C21         9.6115  -10.0611   -0.7833 C.ar      1 <0>        -0.0995
     30 C22         9.4316  -11.0471    0.1695 C.ar      1 <0>        -0.1332
     31 C23         8.1734  -11.2881    0.6901 C.ar      1 <0>        -0.0994
     32 C24         7.0932  -10.5405    0.2638 C.ar      1 <0>        -0.1438
     33 H2          0.9004    1.8573   -0.9119 H         1 <0>         0.0576
     34 H3         -0.7005    1.7114   -1.6761 H         1 <0>         0.0577
     35 H4         -0.5714    1.9156    0.0874 H         1 <0>         0.1022
     36 H5          0.9145    1.0628   -2.8401 H         1 <0>         0.1338
     37 H6          1.9106   -0.2275   -4.6808 H         1 <0>         0.1312
     38 H7          1.1856   -3.8559   -2.5168 H         1 <0>         0.1358
     39 H8          0.2008   -2.5555   -0.6771 H         1 <0>         0.1375
     40 H9          4.6610   -6.2679   -7.8824 H         1 <0>         0.1354
     41 H10         5.9308   -8.2718   -7.2206 H         1 <0>         0.1439
     42 H11         6.1510   -8.8799   -4.8567 H         1 <0>         0.1700
     43 H12         4.4883   -7.2147   -2.1571 H         1 <0>         0.4207
     44 H13         5.4565   -8.5849   -0.5209 H         1 <0>         0.4119
     45 H14         8.6756   -8.5442   -1.9623 H         1 <0>         0.1358
     46 H15        10.5954   -9.8755   -1.1882 H         1 <0>         0.1268
     47 H16        10.2754  -11.6303    0.5074 H         1 <0>         0.1245
     48 H17         8.0360  -12.0589    1.4341 H         1 <0>         0.1278
     49 H18         6.1116  -10.7260    0.6743 H         1 <0>         0.1263
@<TRIPOS>BOND
     1    1    2 1
     2    1   33 1
     3    1   34 1
     4    1   35 1
     5    2    3 1
     6    3    8 ar
     7    3    4 ar
     8    4    5 ar
     9    4   36 1
    10    5    6 ar
    11    5   37 1
    12    6    7 ar
    13    6    9 1
    14    7    8 ar
    15    7   38 1
    16    8   39 1
    17    9   10 1
    18    9   13 2
    19   10   21 1
    20   10   11 2
    21   11   15 1
    22   11   12 1
    23   12   14 1
    24   12   13 1
    25   15   20 ar
    26   15   16 ar
    27   16   17 ar
    28   16   40 1
    29   17   18 ar
    30   17   41 1
    31   18   19 ar
    32   18   42 1
    33   19   20 ar
    34   19   23 1
    35   20   21 1
    36   21   22 2
    37   23   24 am
    38   23   43 1
    39   24   25 2
    40   24   26 am
    41   26   27 1
    42   26   44 1
    43   27   32 ar
    44   27   28 ar
    45   28   29 ar
    46   28   45 1
    47   29   30 ar
    48   29   46 1
    49   30   31 ar
    50   30   47 1
    51   31   32 ar
    52   31   48 1
    53   32   49 1
@<TRIPOS>MOLECULE
CHEMBL328406
   42    44     0     0     0
SMALL
USER_CHARGES

@<TRIPOS>ATOM
      1 C1         -2.2879    0.8087    0.1679 C.3       1 <0>        -0.1431
      2 C2         -2.1033   -0.7080    0.0873 C.3       1 <0>         0.0146
      3 C3         -1.5178   -1.2212    1.4044 C.3       1 <0>        -0.1430
      4 C4         -3.4579   -1.3740   -0.1626 C.3       1 <0>        -0.1472
      5 C5         -1.1639   -1.0403   -1.0433 C.2       1 <0>        -0.0017
      6 C6          0.1117   -0.6375   -1.1655 C.2       1 <0>        -0.0383
      7 N1          0.5936   -1.1501   -2.3115 N.2       1 <0>        -0.4435
      8 C7         -0.3455   -1.8474   -2.8846 C.2       1 <0>         0.1702
      9 O1         -1.4439   -1.8023   -2.1189 O.3       1 <0>        -0.1869
     10 C8         -0.2160   -2.5879   -4.1907 C.3       1 <0>        -0.0295
     11 S1          0.3567   -4.2795   -3.8725 S.3       1 <0>         0.0671
     12 C9          0.4563   -5.0044   -5.4754 C.2       1 <0>        -0.2003
     13 C10         0.8263   -6.2632   -5.8386 C.2       1 <0>         0.0675
     14 N2          0.8292   -6.5999   -7.1162 N.2       1 <0>        -0.5115
     15 C11         0.4793   -5.7378   -8.0532 C.2       1 <0>         0.2830
     16 S2          0.0919   -4.2926   -7.0749 S.3       1 <0>         0.0914
     17 N3          0.4224   -5.9097   -9.4315 N.pl3     1 <0>        -0.5822
     18 C12         0.6474   -7.1668   -9.9862 C.ar      1 <0>         0.2998
     19 C13         0.4553   -8.3257   -9.2339 C.ar      1 <0>        -0.1629
     20 C14         0.6892   -9.5516   -9.8205 C.ar      1 <0>         0.1582
     21 N4          1.0898   -9.6360  -11.0754 N.ar      1 <0>        -0.4760
     22 C15         1.2832   -8.5632  -11.8198 C.ar      1 <0>         0.1629
     23 C16         1.0652   -7.3004  -11.3103 C.ar      1 <0>        -0.1800
     24 H1         -1.3228    1.2832    0.3459 H         1 <0>         0.0652
     25 H2         -2.7050    1.1743   -0.7704 H         1 <0>         0.0611
     26 H3         -2.9673    1.0491    0.9856 H         1 <0>         0.0759
     27 H4         -2.1973   -0.9808    2.2221 H         1 <0>         0.0759
     28 H5         -1.3863   -2.3017    1.3470 H         1 <0>         0.0615
     29 H6         -0.5528   -0.7467    1.5824 H         1 <0>         0.0652
     30 H7         -3.8749   -1.0084   -1.1009 H         1 <0>         0.0608
     31 H8         -3.3264   -2.4545   -0.2200 H         1 <0>         0.0613
     32 H9         -4.1373   -1.1336    0.6552 H         1 <0>         0.0714
     33 H10         0.6527   -0.0143   -0.4689 H         1 <0>         0.1902
     34 H11        -1.1854   -2.6200   -4.6879 H         1 <0>         0.1225
     35 H12         0.5031   -2.0750   -4.8294 H         1 <0>         0.1348
     36 H13         1.1161   -6.9823   -5.0867 H         1 <0>         0.1858
     37 H14         0.2259   -5.1538  -10.0068 H         1 <0>         0.4471
     38 H15         0.1284   -8.2638   -8.2064 H         1 <0>         0.1960
     39 H16         0.5431  -10.4542   -9.2457 H         1 <0>         0.2099
     40 H17         1.6121   -8.6760  -12.8423 H         1 <0>         0.2112
     41 H18         1.2203   -6.4271  -11.9264 H         1 <0>         0.1849
     42 H19         1.2468  -10.5117  -11.4617 H         1 <0>         0.4507
@<TRIPOS>BOND
     1    1    2 1
     2    1   24 1
     3    1   25 1
     4    1   26 1
     5    2    3 1
     6    2    4 1
     7    2    5 1
     8    3   27 1
     9    3   28 1
    10    3   29 1
    11    4   30 1
    12    4   31 1
    13    4   32 1
    14    5    9 1
    15    5    6 2
    16    6    7 1
    17    6   33 1
    18    7    8 2
    19    8    9 1
    20    8   10 1
    21   10   11 1
    22   10   34 1
    23   10   35 1
    24   11   12 1
    25   12   16 1
    26   12   13 2
    27   13   14 1
    28   13   36 1
    29   14   15 2
    30   15   16 1
    31   15   17 1
    32   17   18 1
    33   17   37 1
    34   18   23 ar
    35   18   19 ar
    36   19   20 ar
    37   19   38 1
    38   20   21 ar
    39   20   39 1
    40   21   22 ar
    41   21   42 1
    42   22   23 ar
    43   22   40 1
    44   23   41 1
@<TRIPOS>MOLECULE
CHEMBL424696
   44    47     0     0     0
SMALL
USER_CHARGES

@<TRIPOS>ATOM
      1 C1          2.3692    1.4369   -0.0148 C.ar      1 <0>        -0.0444
      2 C2          1.1264    2.0566   -0.0058 C.ar      1 <0>        -0.2041
      3 C3         -0.0157    1.2811   -0.0026 C.ar      1 <0>         0.1380
      4 N1          0.0607   -0.0361   -0.0080 N.ar      1 <0>        -0.4741
      5 C4          1.2263   -0.6640   -0.0166 C.ar      1 <0>         0.3642
      6 C5          2.4175    0.0546   -0.0203 C.ar      1 <0>        -0.2065
      7 N2          1.2602   -2.0552   -0.0215 N.pl3     1 <0>        -0.5974
      8 C6          0.0847   -2.7763    0.0903 C.2       1 <0>         0.3049
      9 N3         -1.1538   -2.3228    0.1160 N.2       1 <0>        -0.5253
     10 C7         -2.1774   -3.1389    0.2269 C.2       1 <0>         0.1511
     11 C8         -1.8918   -4.4782    0.3140 C.2       1 <0>        -0.2348
     12 S1         -0.1090   -4.4431    0.2188 S.3       1 <0>         0.1478
     13 C9         -2.8042   -5.6279    0.4451 C.ar      1 <0>         0.3234
     14 C10        -2.2990   -6.9334    0.5248 C.ar      1 <0>        -0.2691
     15 C11        -3.1941   -7.9773    0.6467 C.ar      1 <0>         0.1968
     16 N4         -4.4933   -7.7171    0.6845 N.ar      1 <0>        -0.5761
     17 C12        -4.9439   -6.4750    0.6073 C.ar      1 <0>         0.5181
     18 N5         -4.1250   -5.4435    0.4954 N.ar      1 <0>        -0.5244
     19 O1         -6.2798   -6.2546    0.6495 O.3       1 <0>        -0.2828
     20 C13        -7.1228   -7.4014    0.7767 C.3       1 <0>         0.0956
     21 C14        -7.4875   -7.9232   -0.6146 C.3       1 <0>        -0.1348
     22 C15        -8.3901   -9.1510   -0.4784 C.3       1 <0>        -0.1144
     23 C16        -9.6663   -8.7651    0.2723 C.3       1 <0>        -0.1250
     24 C17        -9.3015   -8.2434    1.6636 C.3       1 <0>        -0.1145
     25 C18        -8.3989   -7.0156    1.5273 C.3       1 <0>        -0.1175
     26 H1          3.2775    2.0212   -0.0220 H         1 <0>         0.1399
     27 H2          1.0542    3.1341   -0.0011 H         1 <0>         0.1375
     28 H3         -0.9843    1.7588    0.0047 H         1 <0>         0.1607
     29 H4          3.3671   -0.4598   -0.0276 H         1 <0>         0.1366
     30 H5          2.1080   -2.5194   -0.1033 H         1 <0>         0.4374
     31 H6         -3.1935   -2.7736    0.2488 H         1 <0>         0.1859
     32 H7         -1.2354   -7.1178    0.4912 H         1 <0>         0.1479
     33 H8         -2.8395   -8.9954    0.7103 H         1 <0>         0.1755
     34 H9         -6.5969   -8.1794    1.3301 H         1 <0>         0.0942
     35 H10        -8.0134   -7.1452   -1.1680 H         1 <0>         0.0704
     36 H11        -6.5784   -8.1981   -1.1494 H         1 <0>         0.0674
     37 H12        -8.6500   -9.5227   -1.4696 H         1 <0>         0.0681
     38 H13        -7.8642   -9.9290    0.0750 H         1 <0>         0.0663
     39 H14       -10.1922   -7.9872   -0.2812 H         1 <0>         0.0651
     40 H15       -10.3093   -9.6399    0.3693 H         1 <0>         0.0668
     41 H16       -10.2107   -7.9685    2.1983 H         1 <0>         0.0726
     42 H17        -8.7756   -9.0214    2.2170 H         1 <0>         0.0661
     43 H18        -8.1391   -6.6439    2.5185 H         1 <0>         0.0718
     44 H19        -8.9248   -6.2376    0.9739 H         1 <0>         0.0751
@<TRIPOS>BOND
     1    1    6 ar
     2    1    2 ar
     3    1   26 1
     4    2    3 ar
     5    2   27 1
     6    3    4 ar
     7    3   28 1
     8    4    5 ar
     9    5    6 ar
    10    5    7 1
    11    6   29 1
    12    7    8 1
    13    7   30 1
    14    8   12 1
    15    8    9 2
    16    9   10 1
    17   10   11 2
    18   10   31 1
    19   11   12 1
    20   11   13 1
    21   13   18 ar
    22   13   14 ar
    23   14   15 ar
    24   14   32 1
    25   15   16 ar
    26   15   33 1
    27   16   17 ar
    28   17   18 ar
    29   17   19 1
    30   19   20 1
    31   20   25 1
    32   20   21 1
    33   20   34 1
    34   21   22 1
    35   21   35 1
    36   21   36 1
    37   22   23 1
    38   22   37 1
    39   22   38 1
    40   23   24 1
    41   23   39 1
    42   23   40 1
    43   24   25 1
    44   24   41 1
    45   24   42 1
    46   25   43 1
    47   25   44 1
@<TRIPOS>MOLECULE
CHEMBL460746
   45    48     0     0     0
SMALL
USER_CHARGES

@<TRIPOS>ATOM
      1 C1         -0.0050    1.2556    1.2013 C.ar      1 <0>        -0.1135
      2 C2          1.1644    1.9682    1.4276 C.ar      1 <0>        -0.0914
      3 C3          2.3809    1.3155    1.3532 C.ar      1 <0>        -0.0693
      4 C4          2.4105   -0.0253    1.0571 C.ar      1 <0>        -0.1422
      5 C5          1.2364   -0.7790    0.8214 C.ar      1 <0>         0.0755
      6 C6          0.0132   -0.0718    0.9074 C.ar      1 <0>        -0.0571
      7 N1          1.4257   -2.0836    0.5426 N.2       1 <0>        -0.4791
      8 C7          2.6216   -2.6293    0.4909 C.2       1 <0>         0.2034
      9 S1          3.6884   -1.2436    0.8607 S.3       1 <0>         0.0045
     10 C8          2.9893   -4.0306    0.2016 C.ar      1 <0>        -0.0452
     11 C9          4.3300   -4.4171    0.1996 C.ar      1 <0>        -0.0268
     12 C10         4.6675   -5.7327   -0.0720 C.ar      1 <0>         0.1075
     13 C11         3.6736   -6.6665   -0.3423 C.ar      1 <0>        -0.0765
     14 C12         2.3451   -6.2898   -0.3416 C.ar      1 <0>        -0.1412
     15 C13         1.9935   -4.9778   -0.0658 C.ar      1 <0>         0.1730
     16 O1          0.6857   -4.6105   -0.0601 O.3       1 <0>        -0.4731
     17 N2          6.0129   -6.1230   -0.0746 N.pl3     1 <0>        -0.6175
     18 C14         6.8486   -5.6676    0.8798 C.2       1 <0>         0.5033
     19 S2          6.2386   -4.7282    2.1745 S.2       1 <0>        -0.4611
     20 N3          8.1645   -5.9517    0.8148 N.am      1 <0>        -0.6375
     21 C15         9.0001   -5.4963    1.7691 C.2       1 <0>         0.5323
     22 O2          8.5671   -4.8295    2.6882 O.2       1 <0>        -0.3823
     23 C16        10.4429   -5.8078    1.6979 C.ar      1 <0>        -0.0854
     24 C17        10.9445   -6.5687    0.6403 C.ar      1 <0>        -0.0906
     25 C18        12.2925   -6.8554    0.5796 C.ar      1 <0>        -0.0578
     26 C19        13.1468   -6.3907    1.5639 C.ar      1 <0>        -0.0229
     27 C20        12.6562   -5.6365    2.6151 C.ar      1 <0>        -0.0551
     28 C21        11.3113   -5.3376    2.6848 C.ar      1 <0>        -0.0518
     29 N4         14.5921   -6.7023    1.4923 N.pl3     1 <0>         0.0261
     30 O3         15.0236   -7.3615    0.5752 O.2       1 <0>        -0.1476
     31 O4         15.3410   -6.2977    2.3508 O.3       1 <0>        -0.1442
     32 H1         -0.9538    1.7675    1.2646 H         1 <0>         0.1351
     33 H2          1.1245    3.0224    1.6590 H         1 <0>         0.1398
     34 H3          3.3001    1.8554    1.5262 H         1 <0>         0.1345
     35 H4         -0.9172   -0.5932    0.7378 H         1 <0>         0.1340
     36 H5          5.1026   -3.6922    0.4088 H         1 <0>         0.1504
     37 H6          3.9418   -7.6910   -0.5542 H         1 <0>         0.1389
     38 H7          1.5779   -7.0200   -0.5528 H         1 <0>         0.1473
     39 H8          0.3569   -4.3134   -0.9196 H         1 <0>         0.3968
     40 H9          6.3431   -6.7210   -0.7633 H         1 <0>         0.4113
     41 H10         8.5101   -6.4839    0.0812 H         1 <0>         0.4110
     42 H11        10.2787   -6.9323   -0.1284 H         1 <0>         0.1470
     43 H12        12.6819   -7.4442   -0.2377 H         1 <0>         0.1638
     44 H13        13.3283   -5.2775    3.3804 H         1 <0>         0.1666
     45 H14        10.9303   -4.7451    3.5034 H         1 <0>         0.1667
@<TRIPOS>BOND
     1    1    6 ar
     2    1    2 ar
     3    1   32 1
     4    2    3 ar
     5    2   33 1
     6    3    4 ar
     7    3   34 1
     8    4    9 1
     9    4    5 ar
    10    5    6 ar
    11    5    7 1
    12    6   35 1
    13    7    8 2
    14    8    9 1
    15    8   10 1
    16   10   15 ar
    17   10   11 ar
    18   11   12 ar
    19   11   36 1
    20   12   13 ar
    21   12   17 1
    22   13   14 ar
    23   13   37 1
    24   14   15 ar
    25   14   38 1
    26   15   16 1
    27   16   39 1
    28   17   18 1
    29   17   40 1
    30   18   19 2
    31   18   20 1
    32   20   21 am
    33   20   41 1
    34   21   22 2
    35   21   23 1
    36   23   28 ar
    37   23   24 ar
    38   24   25 ar
    39   24   42 1
    40   25   26 ar
    41   25   43 1
    42   26   27 ar
    43   26   29 1
    44   27   28 ar
    45   27   44 1
    46   28   45 1
    47   29   30 2
    48   29   31 1
@<TRIPOS>MOLECULE
CHEMBL140808
   62    66     0     0     0
SMALL
USER_CHARGES

@<TRIPOS>ATOM
      1 C1          0.5255   -1.1117   -2.8549 C.3       1 <0>        -0.0470
      2 N1          0.2806   -1.2843   -1.4168 N.4       1 <0>        -0.3838
      3 C2          1.1118   -2.3831   -0.9090 C.3       1 <0>        -0.0235
      4 C3          0.9435   -2.4894    0.6103 C.3       1 <0>         0.0997
      5 N2         -0.4900   -2.6228    0.9125 N.pl3     1 <0>        -0.6455
      6 C4         -1.4188   -1.6552    0.3081 C.3       1 <0>         0.1002
      7 C5         -1.1390   -1.5882   -1.1969 C.3       1 <0>        -0.0230
      8 C6         -0.9569   -3.6414    1.7507 C.ar      1 <0>         0.1811
      9 C7         -0.0794   -4.6083    2.2238 C.ar      1 <0>        -0.1640
     10 C8         -0.5402   -5.6134    3.0508 C.ar      1 <0>        -0.0612
     11 C9         -1.8811   -5.6576    3.4092 C.ar      1 <0>         0.1301
     12 C10        -2.7587   -4.6911    2.9358 C.ar      1 <0>        -0.0967
     13 C11        -2.2967   -3.6822    2.1142 C.ar      1 <0>        -0.1627
     14 N3         -2.3486   -6.6775    4.2478 N.pl3     1 <0>        -0.6308
     15 C12        -1.5394   -7.1705    5.2528 C.ar      1 <0>         0.6024
     16 N4         -0.3705   -6.5805    5.4796 N.ar      1 <0>        -0.5756
     17 C13         0.4409   -7.0120    6.4282 C.ar      1 <0>         0.2564
     18 C14         0.0422   -8.1121    7.1965 C.ar      1 <0>        -0.2816
     19 C15         0.8772   -8.6530    8.2646 C.2       1 <0>         0.0044
     20 C16         0.4160   -9.7232    8.9635 C.2       1 <0>        -0.2234
     21 C17        -0.8385  -10.2854    8.6524 C.2       1 <0>         0.5410
     22 O1         -1.2329  -11.2451    9.2920 O.2       1 <0>        -0.5078
     23 N5         -1.6126   -9.7918    7.6696 N.am      1 <0>        -0.5022
     24 C18        -1.2066   -8.7134    6.9268 C.ar      1 <0>         0.4643
     25 N6         -1.9604   -8.2102    5.9575 N.ar      1 <0>        -0.5929
     26 C19        -2.9082  -10.4154    7.3888 C.3       1 <0>         0.1342
     27 C20        -3.7910  -10.3412    8.6362 C.3       1 <0>        -0.1346
     28 C21        -5.1440  -10.9924    8.3430 C.3       1 <0>        -0.1120
     29 C22        -4.9316  -12.4571    7.9549 C.3       1 <0>        -0.1235
     30 C23        -4.0488  -12.5313    6.7075 C.3       1 <0>        -0.1120
     31 C24        -2.6958  -11.8801    7.0008 C.3       1 <0>        -0.1343
     32 H1         -0.0850   -0.2910   -3.2315 H         1 <0>         0.1249
     33 H2          1.5791   -0.8860   -3.0196 H         1 <0>         0.1250
     34 H3          0.2642   -2.0300   -3.3808 H         1 <0>         0.1215
     35 H4          0.8023   -3.3184   -1.3753 H         1 <0>         0.1322
     36 H5          2.1575   -2.1873   -1.1460 H         1 <0>         0.1405
     37 H6          1.4783   -3.3653    0.9776 H         1 <0>         0.1269
     38 H7          1.3361   -1.5908    1.0861 H         1 <0>         0.0874
     39 H8         -2.4458   -1.9796    0.4756 H         1 <0>         0.1260
     40 H9         -1.2648   -0.6723    0.7534 H         1 <0>         0.0870
     41 H10        -1.7518   -0.8067   -1.6461 H         1 <0>         0.1404
     42 H11        -1.3804   -2.5476   -1.6545 H         1 <0>         0.1322
     43 H12         0.9633   -4.5743    1.9445 H         1 <0>         0.1260
     44 H13         0.1422   -6.3653    3.4187 H         1 <0>         0.1391
     45 H14        -3.8016   -4.7257    3.2143 H         1 <0>         0.1314
     46 H15        -2.9782   -2.9277    1.7499 H         1 <0>         0.1271
     47 H16        -3.2405   -7.0376    4.1228 H         1 <0>         0.4265
     48 H17         1.3896   -6.5278    6.6067 H         1 <0>         0.1859
     49 H18         1.8371   -8.2141    8.4934 H         1 <0>         0.1531
     50 H19         1.0125  -10.1443    9.7592 H         1 <0>         0.1613
     51 H20        -3.3945   -9.8888    6.5677 H         1 <0>         0.1113
     52 H21        -3.3046  -10.8677    9.4574 H         1 <0>         0.0901
     53 H22        -3.9423   -9.2977    8.9127 H         1 <0>         0.0596
     54 H23        -5.7729  -10.9395    9.2316 H         1 <0>         0.0691
     55 H24        -5.6303  -10.4658    7.5218 H         1 <0>         0.0619
     56 H25        -4.4453  -12.9837    8.7761 H         1 <0>         0.0674
     57 H26        -5.8956  -12.9210    7.7460 H         1 <0>         0.0660
     58 H27        -3.8975  -13.5748    6.4310 H         1 <0>         0.0690
     59 H28        -4.5351  -12.0047    5.8863 H         1 <0>         0.0618
     60 H29        -2.0668  -11.9330    6.1121 H         1 <0>         0.0593
     61 H30        -2.2095  -12.4067    7.8219 H         1 <0>         0.0901
     62 H31         0.5201   -0.4327   -0.9315 H         1 <0>         0.4247
@<TRIPOS>BOND
     1    1    2 1
     2    1   32 1
     3    1   33 1
     4    1   34 1
     5    2    7 1
     6    2    3 1
     7    2   62 1
     8    3    4 1
     9    3   35 1
    10    3   36 1
    11    4    5 1
    12    4   37 1
    13    4   38 1
    14    5    6 1
    15    5    8 1
    16    6    7 1
    17    6   39 1
    18    6   40 1
    19    7   41 1
    20    7   42 1
    21    8   13 ar
    22    8    9 ar
    23    9   10 ar
    24    9   43 1
    25   10   11 ar
    26   10   44 1
    27   11   12 ar
    28   11   14 1
    29   12   13 ar
    30   12   45 1
    31   13   46 1
    32   14   15 1
    33   14   47 1
    34   15   25 ar
    35   15   16 ar
    36   16   17 ar
    37   17   18 ar
    38   17   48 1
    39   18   24 ar
    40   18   19 1
    41   19   20 2
    42   19   49 1
    43   20   21 1
    44   20   50 1
    45   21   22 2
    46   21   23 am
    47   23   24 1
    48   23   26 1
    49   24   25 ar
    50   26   31 1
    51   26   27 1
    52   26   51 1
    53   27   28 1
    54   27   52 1
    55   27   53 1
    56   28   29 1
    57   28   54 1
    58   28   55 1
    59   29   30 1
    60   29   56 1
    61   29   57 1
    62   30   31 1
    63   30   58 1
    64   30   59 1
    65   31   60 1
    66   31   61 1
@<TRIPOS>MOLECULE
CHEMBL140808
   61    65     0     0     0
SMALL
USER_CHARGES

@<TRIPOS>ATOM
      1 C1          0.6741   -0.9859   -2.9165 C.3       1 <0>         0.0242
      2 N1          0.3683   -1.2731   -1.5087 N.3       1 <0>        -0.5427
      3 C2          1.2209   -2.3532   -0.9945 C.3       1 <0>         0.0380
      4 C3          1.0004   -2.4988    0.5150 C.3       1 <0>         0.1257
      5 N2         -0.4391   -2.6716    0.7623 N.pl3     1 <0>        -0.6312
      6 C4         -1.3694   -1.7031    0.1625 C.3       1 <0>         0.1261
      7 C5         -1.0556   -1.5887   -1.3331 C.3       1 <0>         0.0384
      8 C6         -0.9111   -3.7296    1.5472 C.ar      1 <0>         0.2127
      9 C7         -0.0289   -4.6950    2.0144 C.ar      1 <0>        -0.1818
     10 C8         -0.4947   -5.7389    2.7888 C.ar      1 <0>        -0.0540
     11 C9         -1.8454   -5.8237    3.1002 C.ar      1 <0>         0.0929
     12 C10        -2.7277   -4.8586    2.6327 C.ar      1 <0>        -0.0886
     13 C11        -2.2609   -3.8110    1.8638 C.ar      1 <0>        -0.1811
     14 N3         -2.3179   -6.8830    3.8854 N.pl3     1 <0>        -0.6227
     15 C12        -1.5317   -7.3959    4.8986 C.ar      1 <0>         0.6062
     16 N4         -0.3839   -6.7908    5.1857 N.ar      1 <0>        -0.5694
     17 C13         0.4050   -7.2401    6.1448 C.ar      1 <0>         0.2585
     18 C14         0.0053   -8.3756    6.8592 C.ar      1 <0>        -0.2919
     19 C15         0.8163   -8.9381    7.9346 C.2       1 <0>         0.0125
     20 C16         0.3557  -10.0424    8.5786 C.2       1 <0>        -0.2346
     21 C17        -0.8754  -10.6185    8.2055 C.2       1 <0>         0.5433
     22 O1         -1.2696  -11.6088    8.7965 O.2       1 <0>        -0.5166
     23 N5         -1.6273  -10.1051    7.2157 N.am      1 <0>        -0.5027
     24 C18        -1.2207   -8.9920    6.5262 C.ar      1 <0>         0.4639
     25 N6         -1.9529   -8.4691    5.5509 N.ar      1 <0>        -0.5992
     26 C19        -2.8991  -10.7443    6.8692 C.3       1 <0>         0.1344
     27 C20        -3.8238  -10.7340    8.0881 C.3       1 <0>        -0.1341
     28 C21        -5.1521  -11.4016    7.7263 C.3       1 <0>        -0.1122
     29 C22        -4.8954  -12.8464    7.2931 C.3       1 <0>        -0.1222
     30 C23        -3.9707  -12.8567    6.0742 C.3       1 <0>        -0.1123
     31 C24        -2.6424  -12.1891    6.4360 C.3       1 <0>        -0.1340
     32 H1          0.0833   -0.1328   -3.2499 H         1 <0>         0.0707
     33 H2          1.7346   -0.7555   -3.0182 H         1 <0>         0.0704
     34 H3          0.4314   -1.8564   -3.5259 H         1 <0>         0.0258
     35 H4          0.9629   -3.2883   -1.4916 H         1 <0>         0.0384
     36 H5          2.2667   -2.1145   -1.1879 H         1 <0>         0.0859
     37 H6          1.5421   -3.3707    0.8817 H         1 <0>         0.0874
     38 H7          1.3547   -1.6030    1.0249 H         1 <0>         0.0705
     39 H8         -2.3944   -2.0488    0.2962 H         1 <0>         0.0864
     40 H9         -1.2429   -0.7307    0.6385 H         1 <0>         0.0702
     41 H10        -1.6608   -0.7956   -1.7721 H         1 <0>         0.0858
     42 H11        -1.2819   -2.5345   -1.8255 H         1 <0>         0.0384
     43 H12         1.0214   -4.6295    1.7717 H         1 <0>         0.1255
     44 H13         0.1913   -6.4897    3.1522 H         1 <0>         0.1318
     45 H14        -3.7781   -4.9247    2.8745 H         1 <0>         0.1241
     46 H15        -2.9463   -3.0578    1.5042 H         1 <0>         0.1265
     47 H16        -3.1973   -7.2564    3.7177 H         1 <0>         0.4230
     48 H17         1.3366   -6.7434    6.3724 H         1 <0>         0.1845
     49 H18         1.7584   -8.4883    8.2111 H         1 <0>         0.1511
     50 H19         0.9347  -10.4802    9.3782 H         1 <0>         0.1581
     51 H20        -3.3695  -10.1980    6.0517 H         1 <0>         0.1117
     52 H21        -3.3534  -11.2803    8.9057 H         1 <0>         0.0894
     53 H22        -4.0067   -9.7047    8.3967 H         1 <0>         0.0596
     54 H23        -5.8109  -11.3943    8.5946 H         1 <0>         0.0676
     55 H24        -5.6225  -10.8553    6.9087 H         1 <0>         0.0623
     56 H25        -4.4250  -13.3927    8.1106 H         1 <0>         0.0663
     57 H26        -5.8416  -13.3220    7.0353 H         1 <0>         0.0644
     58 H27        -3.7878  -13.8860    5.7656 H         1 <0>         0.0675
     59 H28        -4.4411  -12.3104    5.2566 H         1 <0>         0.0623
     60 H29        -1.9837  -12.1964    5.5676 H         1 <0>         0.0595
     61 H30        -2.1720  -12.7354    7.2536 H         1 <0>         0.0894
@<TRIPOS>BOND
     1    1    2 1
     2    1   32 1
     3    1   33 1
     4    1   34 1
     5    2    7 1
     6    2    3 1
     7    3    4 1
     8    3   35 1
     9    3   36 1
    10    4    5 1
    11    4   37 1
    12    4   38 1
    13    5    6 1
    14    5    8 1
    15    6    7 1
    16    6   39 1
    17    6   40 1
    18    7   41 1
    19    7   42 1
    20    8   13 ar
    21    8    9 ar
    22    9   10 ar
    23    9   43 1
    24   10   11 ar
    25   10   44 1
    26   11   12 ar
    27   11   14 1
    28   12   13 ar
    29   12   45 1
    30   13   46 1
    31   14   15 1
    32   14   47 1
    33   15   25 ar
    34   15   16 ar
    35   16   17 ar
    36   17   18 ar
    37   17   48 1
    38   18   24 ar
    39   18   19 1
    40   19   20 2
    41   19   49 1
    42   20   21 1
    43   20   50 1
    44   21   22 2
    45   21   23 am
    46   23   24 1
    47   23   26 1
    48   24   25 ar
    49   26   31 1
    50   26   27 1
    51   26   51 1
    52   27   28 1
    53   27   52 1
    54   27   53 1
    55   28   29 1
    56   28   54 1
    57   28   55 1
    58   29   30 1
    59   29   56 1
    60   29   57 1
    61   30   31 1
    62   30   58 1
    63   30   59 1
    64   31   60 1
    65   31   61 1
@<TRIPOS>MOLECULE
CHEMBL370817
   43    46     0     0     0
SMALL
USER_CHARGES

@<TRIPOS>ATOM
      1 C1         -0.0187    1.5258    0.0104 C.3       1 <0>        -0.1461
      2 C2          0.0021   -0.0041    0.0020 C.3       1 <0>        -0.0630
      3 C3          0.7309   -0.5033    1.2229 C.ar      1 <0>        -0.0809
      4 C4          2.0505   -0.1469    1.4325 C.ar      1 <0>        -0.0579
      5 C5          2.7211   -0.6029    2.5506 C.ar      1 <0>        -0.1384
      6 C6          2.0691   -1.4198    3.4644 C.ar      1 <0>         0.1536
      7 C7          0.7442   -1.7759    3.2512 C.ar      1 <0>        -0.1345
      8 C8          0.0772   -1.3121    2.1342 C.ar      1 <0>        -0.0798
      9 N1          2.7472   -1.8845    4.5998 N.am      1 <0>        -0.4997
     10 C9          4.0522   -1.6028    4.9301 C.2       1 <0>         0.2599
     11 N2          4.3392   -2.1997    6.0418 N.2       1 <0>        -0.2657
     12 N3          3.2016   -2.8985    6.4685 N.am      1 <0>        -0.5464
     13 C10         2.2301   -2.6795    5.5580 C.2       1 <0>         0.6499
     14 O1          1.0954   -3.1209    5.5939 O.2       1 <0>        -0.5370
     15 C11         0.7074   -0.4901   -1.2379 C.2       1 <0>         0.5269
     16 O2          1.7040   -1.1745   -1.1398 O.2       1 <0>        -0.4988
     17 N4          0.2309   -0.1642   -2.4557 N.am      1 <0>        -0.6354
     18 C12         0.8870   -0.6162   -3.6089 C.2       1 <0>         0.3030
     19 C13         2.0408   -1.4156   -3.6416 C.2       1 <0>        -0.2591
     20 C14         2.3585   -1.6329   -4.9380 C.2       1 <0>         0.1309
     21 N5          1.4439   -0.9974   -5.7005 N.pl3     1 <0>        -0.4671
     22 H1          1.4229   -0.9807   -6.6701 H         1 <0>         0.4392
     23 N6          0.5270   -0.3710   -4.8467 N.2       1 <0>        -0.3182
     24 C15         3.5267   -2.4406   -5.4419 C.3       1 <0>        -0.0987
     25 C16         4.1924   -1.9849   -6.7419 C.3       1 <0>        -0.1701
     26 C17         3.3266   -3.2462   -6.7272 C.3       1 <0>        -0.1701
     27 H2          1.0039    1.9031    0.0027 H         1 <0>         0.0671
     28 H3         -0.5459    1.8868   -0.8726 H         1 <0>         0.0668
     29 H4         -0.5289    1.8773    0.9072 H         1 <0>         0.0775
     30 H5         -1.0205   -0.3814    0.0098 H         1 <0>         0.1139
     31 H6          2.5573    0.4882    0.7211 H         1 <0>         0.1310
     32 H7          3.7518   -0.3246    2.7136 H         1 <0>         0.1321
     33 H8          0.2345   -2.4114    3.9601 H         1 <0>         0.1563
     34 H9         -0.9548   -1.5852    1.9700 H         1 <0>         0.1329
     35 H10         4.7268   -0.9851    4.3558 H         1 <0>         0.2362
     36 H11         3.1255   -3.4367    7.2720 H         1 <0>         0.4602
     37 H12        -0.5660    0.3831   -2.5342 H         1 <0>         0.4164
     38 H13         2.5791   -1.7905   -2.7836 H         1 <0>         0.1731
     39 H14         4.1671   -2.8717   -4.6724 H         1 <0>         0.1342
     40 H15         3.7855   -1.1007   -7.2327 H         1 <0>         0.0948
     41 H16         5.2711   -2.1158   -6.8278 H         1 <0>         0.1080
     42 H17         3.8356   -4.2070   -6.8034 H         1 <0>         0.1080
     43 H18         2.3500   -3.1919   -7.2083 H         1 <0>         0.0949
@<TRIPOS>BOND
     1    1    2 1
     2    1   27 1
     3    1   28 1
     4    1   29 1
     5    2    3 1
     6    2   15 1
     7    2   30 1
     8    3    8 ar
     9    3    4 ar
    10    4    5 ar
    11    4   31 1
    12    5    6 ar
    13    5   32 1
    14    6    7 ar
    15    6    9 1
    16    7    8 ar
    17    7   33 1
    18    8   34 1
    19    9   13 am
    20    9   10 1
    21   10   35 1
    22   10   11 2
    23   11   12 1
    24   12   13 am
    25   12   36 1
    26   13   14 2
    27   15   16 2
    28   15   17 am
    29   17   18 1
    30   17   37 1
    31   18   23 2
    32   18   19 1
    33   19   20 2
    34   19   38 1
    35   20   21 1
    36   20   24 1
    37   21   22 1
    38   21   23 1
    39   24   26 1
    40   24   25 1
    41   24   39 1
    42   25   26 1
    43   25   40 1
    44   25   41 1
    45   26   42 1
    46   26   43 1
@<TRIPOS>MOLECULE
CHEMBL370817
   43    46     0     0     0
SMALL
USER_CHARGES

@<TRIPOS>ATOM
      1 C1         -0.0187    1.5258    0.0104 C.3       1 <0>        -0.1462
      2 C2          0.0021   -0.0041    0.0020 C.3       1 <0>        -0.0611
      3 C3          0.7309   -0.5033    1.2229 C.ar      1 <0>        -0.0840
      4 C4          2.0505   -0.1469    1.4325 C.ar      1 <0>        -0.0579
      5 C5          2.7211   -0.6029    2.5506 C.ar      1 <0>        -0.1380
      6 C6          2.0691   -1.4198    3.4644 C.ar      1 <0>         0.1558
      7 C7          0.7442   -1.7759    3.2512 C.ar      1 <0>        -0.1344
      8 C8          0.0772   -1.3121    2.1342 C.ar      1 <0>        -0.0790
      9 N1          2.7472   -1.8845    4.5998 N.am      1 <0>        -0.5002
     10 C9          4.0522   -1.6028    4.9301 C.2       1 <0>         0.2597
     11 N2          4.3392   -2.1997    6.0418 N.2       1 <0>        -0.2646
     12 N3          3.2016   -2.8985    6.4685 N.am      1 <0>        -0.5461
     13 C10         2.2301   -2.6795    5.5580 C.2       1 <0>         0.6500
     14 O1          1.0954   -3.1209    5.5939 O.2       1 <0>        -0.5369
     15 C11         0.7074   -0.4901   -1.2379 C.2       1 <0>         0.5245
     16 O2          1.7040   -1.1745   -1.1398 O.2       1 <0>        -0.4884
     17 N4          0.2309   -0.1642   -2.4557 N.am      1 <0>        -0.6509
     18 C12         0.8838   -0.6140   -3.6033 C.2       1 <0>         0.3062
     19 C13         2.0052   -1.3844   -3.6407 C.2       1 <0>        -0.2690
     20 C14         2.3264   -1.6076   -4.9824 C.2       1 <0>         0.1218
     21 N5          1.4376   -0.9986   -5.7250 N.2       1 <0>        -0.2787
     22 H1         -0.2536    0.1528   -5.1630 H         1 <0>         0.4366
     23 N6          0.5141   -0.3688   -4.8810 N.pl3     1 <0>        -0.4908
     24 C15         3.4965   -2.4118   -5.4876 C.3       1 <0>        -0.0854
     25 C16         4.6226   -2.7185   -4.4984 C.3       1 <0>        -0.1630
     26 C17         4.8429   -1.6964   -5.6154 C.3       1 <0>        -0.1631
     27 H2          1.0039    1.9031    0.0027 H         1 <0>         0.0679
     28 H3         -0.5459    1.8868   -0.8726 H         1 <0>         0.0646
     29 H4         -0.5289    1.8773    0.9072 H         1 <0>         0.0788
     30 H5         -1.0205   -0.3814    0.0098 H         1 <0>         0.1140
     31 H6          2.5573    0.4882    0.7211 H         1 <0>         0.1308
     32 H7          3.7518   -0.3246    2.7136 H         1 <0>         0.1328
     33 H8          0.2345   -2.4114    3.9601 H         1 <0>         0.1568
     34 H9         -0.9548   -1.5852    1.9700 H         1 <0>         0.1327
     35 H10         4.7268   -0.9851    4.3558 H         1 <0>         0.2364
     36 H11         3.1255   -3.4367    7.2720 H         1 <0>         0.4605
     37 H12        -0.5660    0.3831   -2.5342 H         1 <0>         0.4125
     38 H13         2.5501   -1.7566   -2.7858 H         1 <0>         0.1741
     39 H14         3.2582   -3.1724   -6.2311 H         1 <0>         0.1214
     40 H15         4.5172   -2.3387   -3.4822 H         1 <0>         0.1015
     41 H16         5.1254   -3.6812   -4.5909 H         1 <0>         0.1020
     42 H17         5.4905   -1.9866   -6.4426 H         1 <0>         0.1012
     43 H18         4.8823   -0.6441   -5.3340 H         1 <0>         0.0950
@<TRIPOS>BOND
     1    1    2 1
     2    1   27 1
     3    1   28 1
     4    1   29 1
     5    2    3 1
     6    2   15 1
     7    2   30 1
     8    3    8 ar
     9    3    4 ar
    10    4    5 ar
    11    4   31 1
    12    5    6 ar
    13    5   32 1
    14    6    7 ar
    15    6    9 1
    16    7    8 ar
    17    7   33 1
    18    8   34 1
    19    9   13 am
    20    9   10 1
    21   10   35 1
    22   10   11 2
    23   11   12 1
    24   12   13 am
    25   12   36 1
    26   13   14 2
    27   15   16 2
    28   15   17 am
    29   17   37 1
    30   17   18 1
    31   18   19 2
    32   18   23 1
    33   19   20 1
    34   19   38 1
    35   20   21 2
    36   20   24 1
    37   21   23 1
    38   22   23 1
    39   24   26 1
    40   24   25 1
    41   24   39 1
    42   25   26 1
    43   25   40 1
    44   25   41 1
    45   26   42 1
    46   26   43 1
@<TRIPOS>MOLECULE
CHEMBL370817
   43    46     0     0     0
SMALL
USER_CHARGES

@<TRIPOS>ATOM
      1 C1         -0.0187    1.5258    0.0104 C.3       1 <0>        -0.1460
      2 C2          0.0021   -0.0041    0.0020 C.3       1 <0>        -0.0630
      3 C3          0.7074   -0.4901   -1.2379 C.ar      1 <0>        -0.0813
      4 C4          2.0263   -0.1407   -1.4632 C.ar      1 <0>        -0.0574
      5 C5          2.6754   -0.5846   -2.5986 C.ar      1 <0>        -0.1385
      6 C6          2.0025   -1.3823   -3.5142 C.ar      1 <0>         0.1537
      7 C7          0.6784   -1.7315   -3.2852 C.ar      1 <0>        -0.1348
      8 C8          0.0363   -1.2892   -2.1451 C.ar      1 <0>        -0.0795
      9 N1          2.6585   -1.8340   -4.6677 N.am      1 <0>        -0.4997
     10 C9          3.9635   -1.5662   -5.0092 C.2       1 <0>         0.2599
     11 N2          4.2266   -2.1443   -6.1367 N.2       1 <0>        -0.2657
     12 N3          3.0725   -2.8159   -6.5628 N.am      1 <0>        -0.5464
     13 C10         2.1199   -2.6101   -5.6295 C.2       1 <0>         0.6498
     14 O1          0.9819   -3.0438   -5.6530 O.2       1 <0>        -0.5370
     15 C11         0.7309   -0.5033    1.2229 C.2       1 <0>         0.5268
     16 O2          1.7254   -1.1865    1.0985 O.2       1 <0>        -0.4989
     17 N4          0.2778   -0.1906    2.4531 N.am      1 <0>        -0.6354
     18 C12         0.9557   -0.6549    3.5886 C.2       1 <0>         0.3030
     19 C13         2.1162   -1.4452    3.5906 C.2       1 <0>        -0.2590
     20 C14         2.4562   -1.6798    4.8784 C.2       1 <0>         0.1308
     21 N5          1.5488   -1.0636    5.6649 N.pl3     1 <0>        -0.4670
     22 H1          1.5432   -1.0620    6.6349 H         1 <0>         0.4392
     23 N6          0.6200   -0.4222    4.8356 N.2       1 <0>        -0.3182
     24 C15         3.6382   -2.4863    5.3512 C.3       1 <0>        -0.0986
     25 C16         3.4749   -3.2873    6.6445 C.3       1 <0>        -0.1704
     26 C17         4.3413   -2.0264    6.6298 C.3       1 <0>        -0.1698
     27 H2          1.0039    1.9031    0.0027 H         1 <0>         0.0671
     28 H3         -0.5459    1.8868   -0.8726 H         1 <0>         0.0775
     29 H4         -0.5289    1.8773    0.9072 H         1 <0>         0.0668
     30 H5         -1.0205   -0.3814    0.0098 H         1 <0>         0.1139
     31 H6          2.5491    0.4802   -0.7508 H         1 <0>         0.1311
     32 H7          3.7053   -0.3111   -2.7743 H         1 <0>         0.1321
     33 H8          0.1523   -2.3517   -3.9958 H         1 <0>         0.1563
     34 H9         -0.9924   -1.5641   -1.9642 H         1 <0>         0.1329
     35 H10         4.6550   -0.9709   -4.4314 H         1 <0>         0.2362
     36 H11         2.9774   -3.3359   -7.3761 H         1 <0>         0.4602
     37 H12        -0.5174    0.3558    2.5526 H         1 <0>         0.4164
     38 H13         2.6437   -1.8024    2.7186 H         1 <0>         0.1731
     39 H14         4.2563   -2.9198    4.5650 H         1 <0>         0.1342
     40 H15         2.5126   -3.2309    7.1534 H         1 <0>         0.0948
     41 H16         3.9856   -4.2481    6.7093 H         1 <0>         0.1080
     42 H17         5.4220   -2.1576    6.6850 H         1 <0>         0.1080
     43 H18         3.9490   -1.1404    7.1290 H         1 <0>         0.0949
@<TRIPOS>BOND
     1    1    2 1
     2    1   27 1
     3    1   28 1
     4    1   29 1
     5    2    3 1
     6    2   15 1
     7    2   30 1
     8    3    8 ar
     9    3    4 ar
    10    4    5 ar
    11    4   31 1
    12    5    6 ar
    13    5   32 1
    14    6    7 ar
    15    6    9 1
    16    7    8 ar
    17    7   33 1
    18    8   34 1
    19    9   13 am
    20    9   10 1
    21   10   35 1
    22   10   11 2
    23   11   12 1
    24   12   13 am
    25   12   36 1
    26   13   14 2
    27   15   16 2
    28   15   17 am
    29   17   18 1
    30   17   37 1
    31   18   23 2
    32   18   19 1
    33   19   20 2
    34   19   38 1
    35   20   21 1
    36   20   24 1
    37   21   22 1
    38   21   23 1
    39   24   26 1
    40   24   25 1
    41   24   39 1
    42   25   26 1
    43   25   40 1
    44   25   41 1
    45   26   42 1
    46   26   43 1
@<TRIPOS>MOLECULE
CHEMBL370817
   43    46     0     0     0
SMALL
USER_CHARGES

@<TRIPOS>ATOM
      1 C1         -0.0187    1.5258    0.0104 C.3       1 <0>        -0.1461
      2 C2          0.0021   -0.0041    0.0020 C.3       1 <0>        -0.0610
      3 C3          0.7074   -0.4901   -1.2379 C.ar      1 <0>        -0.0844
      4 C4          2.0263   -0.1407   -1.4632 C.ar      1 <0>        -0.0573
      5 C5          2.6754   -0.5846   -2.5986 C.ar      1 <0>        -0.1381
      6 C6          2.0025   -1.3823   -3.5142 C.ar      1 <0>         0.1559
      7 C7          0.6784   -1.7315   -3.2852 C.ar      1 <0>        -0.1348
      8 C8          0.0363   -1.2892   -2.1451 C.ar      1 <0>        -0.0789
      9 N1          2.6585   -1.8340   -4.6677 N.am      1 <0>        -0.5002
     10 C9          3.9635   -1.5662   -5.0092 C.2       1 <0>         0.2597
     11 N2          4.2266   -2.1443   -6.1367 N.2       1 <0>        -0.2646
     12 N3          3.0725   -2.8159   -6.5628 N.am      1 <0>        -0.5461
     13 C10         2.1199   -2.6101   -5.6295 C.2       1 <0>         0.6500
     14 O1          0.9819   -3.0438   -5.6530 O.2       1 <0>        -0.5370
     15 C11         0.7309   -0.5033    1.2229 C.2       1 <0>         0.5245
     16 O2          1.7254   -1.1865    1.0985 O.2       1 <0>        -0.4884
     17 N4          0.2778   -0.1906    2.4531 N.am      1 <0>        -0.6509
     18 C12         0.9524   -0.6526    3.5830 C.2       1 <0>         0.3062
     19 C13         2.0743   -1.4232    3.5908 C.2       1 <0>        -0.2691
     20 C14         2.4219   -1.6594    4.9237 C.2       1 <0>         0.1218
     21 N5          1.5481   -1.0577    5.6895 N.2       1 <0>        -0.2786
     22 H1         -0.1431    0.1145    5.1724 H         1 <0>         0.4366
     23 N6          0.6139   -0.4114    4.8702 N.pl3     1 <0>        -0.4909
     24 C15         3.6012   -2.4691    5.3978 C.3       1 <0>        -0.0852
     25 C16         4.2736   -3.3978    4.3847 C.3       1 <0>        -0.1630
     26 C17         3.4187   -3.9840    5.5101 C.3       1 <0>        -0.1635
     27 H2          1.0039    1.9031    0.0027 H         1 <0>         0.0680
     28 H3         -0.5459    1.8868   -0.8726 H         1 <0>         0.0788
     29 H4         -0.5289    1.8773    0.9072 H         1 <0>         0.0646
     30 H5         -1.0205   -0.3814    0.0098 H         1 <0>         0.1139
     31 H6          2.5491    0.4802   -0.7508 H         1 <0>         0.1310
     32 H7          3.7053   -0.3111   -2.7743 H         1 <0>         0.1328
     33 H8          0.1523   -2.3517   -3.9958 H         1 <0>         0.1567
     34 H9         -0.9924   -1.5641   -1.9642 H         1 <0>         0.1327
     35 H10         4.6550   -0.9709   -4.4314 H         1 <0>         0.2365
     36 H11         2.9774   -3.3359   -7.3761 H         1 <0>         0.4605
     37 H12        -0.5174    0.3558    2.5526 H         1 <0>         0.4125
     38 H13         2.6017   -1.7876    2.7217 H         1 <0>         0.1741
     39 H14         4.2390   -1.9829    6.1360 H         1 <0>         0.1216
     40 H15         3.8630   -3.4232    3.3753 H         1 <0>         0.1014
     41 H16         5.3541   -3.5227    4.4562 H         1 <0>         0.1021
     42 H17         3.9367   -4.4945    6.3219 H         1 <0>         0.1013
     43 H18         2.4457   -4.3950    5.2411 H         1 <0>         0.0950
@<TRIPOS>BOND
     1    1    2 1
     2    1   27 1
     3    1   28 1
     4    1   29 1
     5    2    3 1
     6    2   15 1
     7    2   30 1
     8    3    8 ar
     9    3    4 ar
    10    4    5 ar
    11    4   31 1
    12    5    6 ar
    13    5   32 1
    14    6    7 ar
    15    6    9 1
    16    7    8 ar
    17    7   33 1
    18    8   34 1
    19    9   13 am
    20    9   10 1
    21   10   35 1
    22   10   11 2
    23   11   12 1
    24   12   13 am
    25   12   36 1
    26   13   14 2
    27   15   16 2
    28   15   17 am
    29   17   37 1
    30   17   18 1
    31   18   19 2
    32   18   23 1
    33   19   20 1
    34   19   38 1
    35   20   21 2
    36   20   24 1
    37   21   23 1
    38   22   23 1
    39   24   26 1
    40   24   25 1
    41   24   39 1
    42   25   26 1
    43   25   40 1
    44   25   41 1
    45   26   42 1
    46   26   43 1
@<TRIPOS>MOLECULE
CHEMBL112442
   29    30     0     0     0
SMALL
USER_CHARGES

@<TRIPOS>ATOM
      1 C1         -0.0187    1.5258    0.0104 C.3       1 <0>        -0.1544
      2 C2          0.0021   -0.0041    0.0020 C.3       1 <0>        -0.1108
      3 C3         -1.4333   -0.5336    0.0129 C.3       1 <0>        -0.1360
      4 C4         -1.4129   -2.0405    0.0046 C.2       1 <0>         0.5207
      5 O1         -0.3544   -2.6326   -0.0087 O.2       1 <0>        -0.5105
      6 N1         -2.5708   -2.7302    0.0119 N.am      1 <0>        -0.6390
      7 C5         -2.5518   -4.1316    0.0042 C.2       1 <0>         0.3020
      8 C6         -1.4044   -4.9409   -0.0054 C.2       1 <0>        -0.2598
      9 C7         -1.8072   -6.2318   -0.0106 C.2       1 <0>         0.1304
     10 N2         -3.1568   -6.2444   -0.0045 N.pl3     1 <0>        -0.4675
     11 H1         -3.7193   -7.0347   -0.0062 H         1 <0>         0.4391
     12 N3         -3.6031   -4.9168    0.0105 N.2       1 <0>        -0.3194
     13 C8         -0.9086   -7.4416   -0.0218 C.3       1 <0>        -0.0985
     14 C9         -1.3983   -8.6784   -0.7777 C.3       1 <0>        -0.1703
     15 C10        -1.3760   -8.6759    0.7521 C.3       1 <0>        -0.1700
     16 H2          1.0039    1.9031    0.0027 H         1 <0>         0.0599
     17 H3         -0.5459    1.8868   -0.8726 H         1 <0>         0.0556
     18 H4         -0.5289    1.8773    0.9072 H         1 <0>         0.0556
     19 H5          0.5123   -0.3556   -0.8948 H         1 <0>         0.0716
     20 H6          0.5293   -0.3651    0.8851 H         1 <0>         0.0716
     21 H7         -1.9435   -0.1821    0.9097 H         1 <0>         0.0998
     22 H8         -1.9605   -0.1726   -0.8702 H         1 <0>         0.0998
     23 H9         -3.4173   -2.2567    0.0226 H         1 <0>         0.4166
     24 H10        -0.3816   -4.5939   -0.0083 H         1 <0>         0.1730
     25 H11         0.1610   -7.2326   -0.0374 H         1 <0>         0.1345
     26 H12        -2.3704   -8.6170   -1.2670 H         1 <0>         0.0947
     27 H13        -0.6508   -9.2833   -1.2910 H         1 <0>         0.1082
     28 H14        -0.6138   -9.2792    1.2453 H         1 <0>         0.1082
     29 H15        -2.3334   -8.6129    1.2693 H         1 <0>         0.0948
@<TRIPOS>BOND
     1    1    2 1
     2    1   16 1
     3    1   17 1
     4    1   18 1
     5    2    3 1
     6    2   19 1
     7    2   20 1
     8    3    4 1
     9    3   21 1
    10    3   22 1
    11    4    5 2
    12    4    6 am
    13    6    7 1
    14    6   23 1
    15    7   12 2
    16    7    8 1
    17    8    9 2
    18    8   24 1
    19    9   10 1
    20    9   13 1
    21   10   11 1
    22   10   12 1
    23   13   15 1
    24   13   14 1
    25   13   25 1
    26   14   15 1
    27   14   26 1
    28   14   27 1
    29   15   28 1
    30   15   29 1
@<TRIPOS>MOLECULE
CHEMBL112442
   29    30     0     0     0
SMALL
USER_CHARGES

@<TRIPOS>ATOM
      1 C1         -0.0187    1.5258    0.0104 C.3       1 <0>        -0.1545
      2 C2          0.0021   -0.0041    0.0020 C.3       1 <0>        -0.1115
      3 C3         -1.4333   -0.5336    0.0129 C.3       1 <0>        -0.1346
      4 C4         -1.4129   -2.0405    0.0046 C.2       1 <0>         0.5184
      5 O1         -0.3544   -2.6326   -0.0087 O.2       1 <0>        -0.5000
      6 N1         -2.5708   -2.7302    0.0119 N.am      1 <0>        -0.6543
      7 C5         -2.5519   -4.1248    0.0043 C.2       1 <0>         0.3053
      8 C6         -1.4430   -4.9139   -0.0106 C.2       1 <0>        -0.2706
      9 C7         -1.8658   -6.2460   -0.0128 C.2       1 <0>         0.1218
     10 N2         -3.1741   -6.2623    0.0001 N.2       1 <0>        -0.2797
     11 H1         -4.5598   -4.6559    0.0311 H         1 <0>         0.4365
     12 N3         -3.6321   -4.9387    0.0161 N.pl3     1 <0>        -0.4913
     13 C8         -0.9684   -7.4565   -0.0280 C.3       1 <0>        -0.0853
     14 C9          0.4943   -7.2466   -0.4247 C.3       1 <0>        -0.1632
     15 C10        -0.4665   -7.9469   -1.3877 C.3       1 <0>        -0.1634
     16 H2          1.0039    1.9031    0.0027 H         1 <0>         0.0610
     17 H3         -0.5459    1.8868   -0.8726 H         1 <0>         0.0557
     18 H4         -0.5289    1.8773    0.9072 H         1 <0>         0.0558
     19 H5          0.5123   -0.3556   -0.8948 H         1 <0>         0.0724
     20 H6          0.5293   -0.3651    0.8851 H         1 <0>         0.0725
     21 H7         -1.9435   -0.1821    0.9097 H         1 <0>         0.1001
     22 H8         -1.9605   -0.1726   -0.8702 H         1 <0>         0.1000
     23 H9         -3.4173   -2.2567    0.0226 H         1 <0>         0.4128
     24 H10        -0.4187   -4.5716   -0.0194 H         1 <0>         0.1739
     25 H11        -1.1813   -8.2092    0.7311 H         1 <0>         0.1217
     26 H12         0.8075   -6.2330   -0.6747 H         1 <0>         0.1016
     27 H13         1.2441   -7.8611    0.0736 H         1 <0>         0.1024
     28 H14        -0.3489   -9.0220   -1.5229 H         1 <0>         0.1014
     29 H15        -0.7855   -7.3939   -2.2712 H         1 <0>         0.0950
@<TRIPOS>BOND
     1    1    2 1
     2    1   16 1
     3    1   17 1
     4    1   18 1
     5    2    3 1
     6    2   19 1
     7    2   20 1
     8    3    4 1
     9    3   21 1
    10    3   22 1
    11    4    5 2
    12    4    6 am
    13    6   23 1
    14    6    7 1
    15    7    8 2
    16    7   12 1
    17    8    9 1
    18    8   24 1
    19    9   10 2
    20    9   13 1
    21   10   12 1
    22   11   12 1
    23   13   15 1
    24   13   14 1
    25   13   25 1
    26   14   15 1
    27   14   26 1
    28   14   27 1
    29   15   28 1
    30   15   29 1
@<TRIPOS>MOLECULE
CHEMBL188863
   42    45     0     0     0
SMALL
USER_CHARGES

@<TRIPOS>ATOM
      1 C1         -0.0391    1.6659   -0.1652 C.3       1 <0>        -0.1417
      2 C2          0.0274    0.1418   -0.0480 C.3       1 <0>        -0.0497
      3 C3          0.7182   -0.4256   -1.2613 C.2       1 <0>         0.1678
      4 C4          0.0907   -0.8154   -2.4592 C.2       1 <0>        -0.3319
      5 C5          1.0941   -1.2855   -3.3218 C.2       1 <0>         0.3595
      6 N1          0.7543   -1.7227   -4.5440 N.2       1 <0>        -0.5082
      7 C6         -0.4802   -1.7239   -4.9546 C.2       1 <0>         0.4376
      8 N2         -1.5144   -1.2889   -4.1913 N.am      1 <0>        -0.6459
      9 C7         -1.2909   -0.8249   -2.9395 C.2       1 <0>         0.5801
     10 O1         -2.2062   -0.4302   -2.2389 O.2       1 <0>        -0.5071
     11 C8         -0.7752   -2.2316   -6.3425 C.3       1 <0>        -0.0397
     12 C9          0.5190   -2.5403   -7.0502 C.ar      1 <0>        -0.0211
     13 C10         1.1699   -1.5687   -7.7949 C.ar      1 <0>        -0.1526
     14 C11         2.3549   -1.8885   -8.4302 C.ar      1 <0>         0.1031
     15 N3          2.8660   -3.1003   -8.3342 N.ar      1 <0>        -0.4791
     16 C12         2.2746   -4.0489   -7.6347 C.ar      1 <0>         0.1011
     17 C13         1.0900   -3.8010   -6.9673 C.ar      1 <0>        -0.1502
     18 N4          2.2702   -1.1729   -2.6465 N.pl3     1 <0>        -0.3134
     19 N5          2.0008   -0.6341   -1.3821 N.2       1 <0>        -0.2486
     20 C14         3.5348   -1.5298   -3.1347 C.ar      1 <0>         0.1660
     21 C15         4.0001   -0.9860   -4.3255 C.ar      1 <0>        -0.0013
     22 C16         5.2475   -1.3399   -4.8044 C.ar      1 <0>        -0.0857
     23 C17         6.0325   -2.2351   -4.0992 C.ar      1 <0>        -0.0044
     24 C18         5.5718   -2.7783   -2.9128 C.ar      1 <0>        -0.0902
     25 C19         4.3278   -2.4236   -2.4257 C.ar      1 <0>        -0.0029
     26 Cl1         3.7539   -3.0996   -0.9333 Cl        1 <0>        -0.0157
     27 Cl2         7.5982   -2.6780   -4.7044 Cl        1 <0>        -0.0286
     28 Cl3         3.0155    0.1362   -5.2115 Cl        1 <0>        -0.0170
     29 H1          0.9713    2.0697   -0.2301 H         1 <0>         0.0570
     30 H2         -0.5972    1.9374   -1.0613 H         1 <0>         0.0576
     31 H3         -0.5387    2.0763    0.7123 H         1 <0>         0.0687
     32 H4          0.5855   -0.1297    0.8480 H         1 <0>         0.0861
     33 H5         -0.9829   -0.2620    0.0169 H         1 <0>         0.0967
     34 H6         -1.3787   -3.1370   -6.2775 H         1 <0>         0.1218
     35 H7         -1.3212   -1.4702   -6.8994 H         1 <0>         0.1193
     36 H8          0.7559   -0.5746   -7.8779 H         1 <0>         0.1285
     37 H9          2.8681   -1.1373   -9.0122 H         1 <0>         0.1524
     38 H10         2.7232   -5.0298   -7.5794 H         1 <0>         0.1533
     39 H11         0.6130   -4.5807   -6.3920 H         1 <0>         0.1311
     40 H12         5.6097   -0.9176   -5.7300 H         1 <0>         0.1609
     41 H13         6.1867   -3.4767   -2.3646 H         1 <0>         0.1618
     42 H14        -2.4177   -1.3105   -4.5443 H         1 <0>         0.4247
@<TRIPOS>BOND
     1    1    2 1
     2    1   29 1
     3    1   30 1
     4    1   31 1
     5    2    3 1
     6    2   32 1
     7    2   33 1
     8    3   19 2
     9    3    4 1
    10    4    9 1
    11    4    5 2
    12    5    6 1
    13    5   18 1
    14    6    7 2
    15    7    8 1
    16    7   11 1
    17    8    9 am
    18    8   42 1
    19    9   10 2
    20   11   12 1
    21   11   34 1
    22   11   35 1
    23   12   17 ar
    24   12   13 ar
    25   13   14 ar
    26   13   36 1
    27   14   15 ar
    28   14   37 1
    29   15   16 ar
    30   16   17 ar
    31   16   38 1
    32   17   39 1
    33   18   19 1
    34   18   20 1
    35   20   25 ar
    36   20   21 ar
    37   21   22 ar
    38   21   28 1
    39   22   23 ar
    40   22   40 1
    41   23   24 ar
    42   23   27 1
    43   24   25 ar
    44   24   41 1
    45   25   26 1
@<TRIPOS>MOLECULE
CHEMBL436466
   35    38     0     0     0
SMALL
USER_CHARGES

@<TRIPOS>ATOM
      1 C1         -0.1681    1.5034   -0.5524 C.3       1 <0>        -0.1747
      2 C2         -0.1539   -0.0035   -0.5704 C.2       1 <0>         0.5157
      3 O1          0.7590   -0.5949   -1.1065 O.2       1 <0>        -0.5209
      4 N1         -1.1558   -0.6938    0.0094 N.am      1 <0>        -0.6712
      5 C3         -1.1919   -2.0809   -0.0878 C.ar      1 <0>         0.2264
      6 C4         -0.0034   -2.8156   -0.0917 C.ar      1 <0>        -0.1152
      7 C5         -0.0391   -4.1883   -0.1879 C.ar      1 <0>        -0.0672
      8 C6         -1.2525   -4.8590   -0.2820 C.ar      1 <0>        -0.1051
      9 C7         -2.4434   -4.1488   -0.2803 C.ar      1 <0>         0.0065
     10 C8         -2.4141   -2.7453   -0.1759 C.ar      1 <0>        -0.1876
     11 C9         -3.8157   -2.2687   -0.1909 C.2       1 <0>         0.4841
     12 O2         -4.1871   -1.1136   -0.1240 O.2       1 <0>        -0.4279
     13 C10        -4.6772   -3.4636   -0.3031 C.2       1 <0>        -0.3120
     14 C11        -3.8585   -4.5831   -0.3666 C.2       1 <0>         0.1617
     15 N2         -4.6630   -5.6630   -0.4736 N.pl3     1 <0>        -0.4220
     16 H1         -4.3682   -6.5856   -0.5252 H         1 <0>         0.4487
     17 N3         -5.9927   -5.2281   -0.4967 N.2       1 <0>        -0.2649
     18 C12        -6.0157   -3.9166   -0.3803 C.2       1 <0>         0.1958
     19 C13        -7.2281   -3.0634   -0.3627 C.ar      1 <0>        -0.0853
     20 C14        -8.3545   -3.4138   -1.1136 C.ar      1 <0>        -0.0419
     21 C15        -9.4609   -2.5839   -1.0632 C.ar      1 <0>        -0.1754
     22 C16        -9.4175   -1.4451   -0.2791 C.ar      1 <0>         0.1122
     23 N4         -8.3403   -1.1401    0.4183 N.ar      1 <0>        -0.4811
     24 C17        -7.2658   -1.9022    0.4069 C.ar      1 <0>         0.1449
     25 H2          0.7162    1.8812   -1.0656 H         1 <0>         0.1003
     26 H3         -1.0636    1.8643   -1.0581 H         1 <0>         0.0965
     27 H4         -0.1671    1.8544    0.4795 H         1 <0>         0.0957
     28 H5         -1.8517   -0.2233    0.4944 H         1 <0>         0.4225
     29 H6          0.9456   -2.3052   -0.0195 H         1 <0>         0.1559
     30 H7          0.8840   -4.7489   -0.1906 H         1 <0>         0.1446
     31 H8         -1.2680   -5.9363   -0.3570 H         1 <0>         0.1365
     32 H9         -8.3608   -4.3090   -1.7177 H         1 <0>         0.1404
     33 H10       -10.3485   -2.8226   -1.6302 H         1 <0>         0.1422
     34 H11       -10.2792   -0.7954   -0.2375 H         1 <0>         0.1614
     35 H12        -6.4046   -1.6218    0.9953 H         1 <0>         0.1605
@<TRIPOS>BOND
     1    1    2 1
     2    1   25 1
     3    1   26 1
     4    1   27 1
     5    2    3 2
     6    2    4 am
     7    4    5 1
     8    4   28 1
     9    5   10 ar
    10    5    6 ar
    11    6    7 ar
    12    6   29 1
    13    7    8 ar
    14    7   30 1
    15    8    9 ar
    16    8   31 1
    17    9   14 1
    18    9   10 ar
    19   10   11 1
    20   11   12 2
    21   11   13 1
    22   13   18 1
    23   13   14 2
    24   14   15 1
    25   15   16 1
    26   15   17 1
    27   17   18 2
    28   18   19 1
    29   19   24 ar
    30   19   20 ar
    31   20   21 ar
    32   20   32 1
    33   21   22 ar
    34   21   33 1
    35   22   23 ar
    36   22   34 1
    37   23   24 ar
    38   24   35 1
@<TRIPOS>MOLECULE
CHEMBL436466
   35    38     0     0     0
SMALL
USER_CHARGES

@<TRIPOS>ATOM
      1 C1         -0.5955    1.4959   -0.1364 C.3       1 <0>        -0.1734
      2 C2         -0.5855   -0.0110   -0.1504 C.2       1 <0>         0.5139
      3 O1         -1.1044   -0.6292    0.7548 O.2       1 <0>        -0.5188
      4 N1          0.0001   -0.6716   -1.1688 N.am      1 <0>        -0.6675
      5 C3          0.1113   -2.0586   -1.1263 C.ar      1 <0>         0.2266
      6 C4          0.1184   -2.7210    0.0973 C.ar      1 <0>        -0.1317
      7 C5          0.2285   -4.0953    0.1428 C.ar      1 <0>        -0.0612
      8 C6          0.3331   -4.8316   -1.0263 C.ar      1 <0>        -0.1077
      9 C7          0.3282   -4.1920   -2.2588 C.ar      1 <0>         0.0403
     10 C8          0.2105   -2.7921   -2.3153 C.ar      1 <0>        -0.1951
     11 C9          0.2229   -2.3687   -3.7302 C.2       1 <0>         0.4917
     12 O2          0.1441   -1.2253   -4.1380 O.2       1 <0>        -0.4427
     13 C10         0.3485   -3.5779   -4.5570 C.2       1 <0>        -0.3243
     14 C11         0.4249   -4.7198   -3.6426 C.2       1 <0>         0.1294
     15 N2          0.5413   -5.7995   -4.3758 N.2       1 <0>        -0.2301
     16 H1          0.6437   -6.0650   -6.4696 H         1 <0>         0.4492
     17 N3          0.5649   -5.4446   -5.7282 N.pl3     1 <0>        -0.4622
     18 C12         0.4330   -4.0933   -5.8422 C.2       1 <0>         0.2334
     19 C13         0.4109   -3.3189   -7.0992 C.ar      1 <0>        -0.1129
     20 C14        -0.3801   -3.7345   -8.1783 C.ar      1 <0>        -0.0507
     21 C15        -0.3655   -2.9732   -9.3332 C.ar      1 <0>        -0.1711
     22 C16         0.4221   -1.8367   -9.3855 C.ar      1 <0>         0.1202
     23 N4          1.1576   -1.4692   -8.3539 N.ar      1 <0>        -0.4779
     24 C17         1.1734   -2.1567   -7.2308 C.ar      1 <0>         0.1554
     25 H2          0.2933    1.8604    0.3786 H         1 <0>         0.1024
     26 H3         -0.6004    1.8687   -1.1607 H         1 <0>         0.0865
     27 H4         -1.4866    1.8485    0.3829 H         1 <0>         0.1012
     28 H5          0.3440   -0.1806   -1.9314 H         1 <0>         0.4226
     29 H6          0.0378   -2.1571    1.0149 H         1 <0>         0.1598
     30 H7          0.2335   -4.6011    1.0970 H         1 <0>         0.1436
     31 H8          0.4192   -5.9071   -0.9787 H         1 <0>         0.1389
     32 H9         -0.9854   -4.6263   -8.1103 H         1 <0>         0.1388
     33 H10        -0.9623   -3.2631  -10.1853 H         1 <0>         0.1455
     34 H11         0.4351   -1.2408  -10.2861 H         1 <0>         0.1647
     35 H12         1.7850   -1.8214   -6.4062 H         1 <0>         0.1630
@<TRIPOS>BOND
     1    1    2 1
     2    1   25 1
     3    1   26 1
     4    1   27 1
     5    2    3 2
     6    2    4 am
     7    4    5 1
     8    4   28 1
     9    5   10 ar
    10    5    6 ar
    11    6    7 ar
    12    6   29 1
    13    7    8 ar
    14    7   30 1
    15    8    9 ar
    16    8   31 1
    17    9   14 1
    18    9   10 ar
    19   10   11 1
    20   11   12 2
    21   11   13 1
    22   13   14 1
    23   13   18 2
    24   14   15 2
    25   15   17 1
    26   16   17 1
    27   17   18 1
    28   18   19 1
    29   19   24 ar
    30   19   20 ar
    31   20   21 ar
    32   20   32 1
    33   21   22 ar
    34   21   33 1
    35   22   23 ar
    36   22   34 1
    37   23   24 ar
    38   24   35 1
@<TRIPOS>MOLECULE
CHEMBL194721
   40    43     0     0     0
SMALL
USER_CHARGES

@<TRIPOS>ATOM
      1 C1          0.2405    1.2234    0.7831 C.ar      1 <0>        -0.0923
      2 C2          1.2675    1.9847    0.2555 C.ar      1 <0>        -0.1244
      3 C3          2.2753    1.3815   -0.4740 C.ar      1 <0>        -0.0864
      4 C4          2.2594    0.0145   -0.6779 C.ar      1 <0>        -0.0713
      5 C5          1.2288   -0.7531   -0.1484 C.ar      1 <0>         0.1624
      6 C6          0.2182   -0.1430    0.5833 C.ar      1 <0>        -0.1191
      7 N1          1.2089   -2.1364   -0.3529 N.pl3     1 <0>        -0.6350
      8 C7          0.0161   -2.8353   -0.2495 C.ar      1 <0>         0.5182
      9 C8          0.0021   -4.2296   -0.3336 C.ar      1 <0>        -0.4013
     10 C9         -1.2092   -4.8839   -0.2247 C.ar      1 <0>         0.2754
     11 N2         -2.3147   -4.1759   -0.0450 N.ar      1 <0>        -0.5773
     12 C10        -2.2720   -2.8539    0.0311 C.ar      1 <0>         0.6161
     13 N3         -1.1302   -2.1889   -0.0634 N.ar      1 <0>        -0.5989
     14 N4         -3.4498   -2.1500    0.2190 N.pl3     1 <0>        -0.6203
     15 C11        -4.6489   -2.8378    0.4366 C.ar      1 <0>         0.1682
     16 C12        -5.8457   -2.3182   -0.0541 C.ar      1 <0>        -0.1420
     17 C13        -7.0240   -2.9767    0.1489 C.ar      1 <0>        -0.0417
     18 C14        -7.0374   -4.1834    0.8545 C.ar      1 <0>         0.0339
     19 C15        -5.8330   -4.7103    1.3506 C.ar      1 <0>         0.0656
     20 C16        -4.6405   -4.0344    1.1334 C.ar      1 <0>        -0.1028
     21 N5         -6.1664   -5.8883    1.9888 N.pl3     1 <0>        -0.6014
     22 C17        -7.5138   -6.0452    1.8709 C.2       1 <0>         0.2628
     23 N6         -8.0233   -5.0489    1.2080 N.2       1 <0>        -0.4932
     24 C18         1.2796   -5.0021   -0.5390 C.3       1 <0>         0.5266
     25 F1          0.9942   -6.3708   -0.5879 F         1 <0>        -0.1697
     26 F2          1.8755   -4.6067   -1.7413 F         1 <0>        -0.1759
     27 F3          2.1551   -4.7460    0.5218 F         1 <0>        -0.1759
     28 Cl1         3.5246   -0.7424   -1.5943 Cl        1 <0>        -0.0629
     29 H1         -0.5428    1.6974    1.3558 H         1 <0>         0.1338
     30 H2          1.2821    3.0530    0.4134 H         1 <0>         0.1345
     31 H3          3.0755    1.9790   -0.8852 H         1 <0>         0.1390
     32 H4         -0.5841   -0.7366    0.9961 H         1 <0>         0.1637
     33 H5          2.0296   -2.6069   -0.5670 H         1 <0>         0.4250
     34 H6         -1.2550   -5.9613   -0.2857 H         1 <0>         0.1859
     35 H7         -3.4436   -1.1802    0.1998 H         1 <0>         0.4293
     36 H8         -5.8406   -1.3861   -0.5995 H         1 <0>         0.1347
     37 H9         -7.9458   -2.5653   -0.2351 H         1 <0>         0.1367
     38 H10        -3.7117   -4.4374    1.5093 H         1 <0>         0.1376
     39 H11        -8.0772   -6.8758    2.2697 H         1 <0>         0.2176
     40 H12        -5.5543   -6.4922    2.4378 H         1 <0>         0.4249
@<TRIPOS>BOND
     1    1    6 ar
     2    1    2 ar
     3    1   29 1
     4    2    3 ar
     5    2   30 1
     6    3    4 ar
     7    3   31 1
     8    4    5 ar
     9    4   28 1
    10    5    6 ar
    11    5    7 1
    12    6   32 1
    13    7    8 1
    14    7   33 1
    15    8   13 ar
    16    8    9 ar
    17    9   10 ar
    18    9   24 1
    19   10   11 ar
    20   10   34 1
    21   11   12 ar
    22   12   13 ar
    23   12   14 1
    24   14   15 1
    25   14   35 1
    26   15   20 ar
    27   15   16 ar
    28   16   17 ar
    29   16   36 1
    30   17   18 ar
    31   17   37 1
    32   18   23 1
    33   18   19 ar
    34   19   20 ar
    35   19   21 1
    36   20   38 1
    37   21   22 1
    38   21   40 1
    39   22   23 2
    40   22   39 1
    41   24   25 1
    42   24   26 1
    43   24   27 1
@<TRIPOS>MOLECULE
CHEMBL194721
   40    43     0     0     0
SMALL
USER_CHARGES

@<TRIPOS>ATOM
      1 C1          0.2352    1.2268    0.7762 C.ar      1 <0>        -0.0922
      2 C2          1.2664    1.9863    0.2542 C.ar      1 <0>        -0.1249
      3 C3          2.2790    1.3808   -0.4669 C.ar      1 <0>        -0.0866
      4 C4          2.2637    0.0134   -0.6678 C.ar      1 <0>        -0.0717
      5 C5          1.2289   -0.7524   -0.1439 C.ar      1 <0>         0.1629
      6 C6          0.2136   -0.1401    0.5793 C.ar      1 <0>        -0.1197
      7 N1          1.2098   -2.1363   -0.3450 N.pl3     1 <0>        -0.6352
      8 C7          0.0170   -2.8352   -0.2425 C.ar      1 <0>         0.5182
      9 C8          0.0035   -4.2296   -0.3241 C.ar      1 <0>        -0.4020
     10 C9         -1.2079   -4.8841   -0.2162 C.ar      1 <0>         0.2768
     11 N2         -2.3139   -4.1760   -0.0397 N.ar      1 <0>        -0.5770
     12 C10        -2.2716   -2.8539    0.0341 C.ar      1 <0>         0.6183
     13 N3         -1.1298   -2.1887   -0.0596 N.ar      1 <0>        -0.5998
     14 N4         -3.4498   -2.1499    0.2191 N.pl3     1 <0>        -0.6218
     15 C11        -4.6497   -2.8381    0.4372 C.ar      1 <0>         0.1519
     16 C12        -4.6410   -4.0394    1.1440 C.ar      1 <0>        -0.0865
     17 C13        -5.8143   -4.7261    1.3654 C.ar      1 <0>        -0.0921
     18 C14        -7.0142   -4.2210    0.8828 C.ar      1 <0>         0.0366
     19 C15        -7.0320   -3.0110    0.1695 C.ar      1 <0>         0.0654
     20 C16        -5.8366   -2.3195   -0.0446 C.ar      1 <0>        -0.0913
     21 N5         -8.3243   -2.7715   -0.1720 N.2       1 <0>        -0.4983
     22 C17        -9.0804   -3.7318    0.2745 C.2       1 <0>         0.2678
     23 N6         -8.3267   -4.6529    0.9325 N.pl3     1 <0>        -0.6022
     24 H1         -8.6499   -5.4626    1.3577 H         1 <0>         0.4252
     25 C18         1.2816   -5.0022   -0.5257 C.3       1 <0>         0.5267
     26 F1          0.9965   -6.3711   -0.5728 F         1 <0>        -0.1695
     27 F2          1.8795   -4.6089   -1.7278 F         1 <0>        -0.1764
     28 F3          2.1551   -4.7440    0.5361 F         1 <0>        -0.1760
     29 Cl1         3.5348   -0.7464   -1.5736 Cl        1 <0>        -0.0633
     30 H2         -0.5518    1.7026    1.3423 H         1 <0>         0.1337
     31 H3          1.2806    3.0549    0.4098 H         1 <0>         0.1342
     32 H4          3.0824    1.9769   -0.8738 H         1 <0>         0.1387
     33 H5         -0.5920   -0.7323    0.9878 H         1 <0>         0.1648
     34 H6          2.0312   -2.6070   -0.5562 H         1 <0>         0.4249
     35 H7         -1.2533   -5.9615   -0.2753 H         1 <0>         0.1871
     36 H8         -3.4439   -1.1802    0.1975 H         1 <0>         0.4280
     37 H9         -3.7088   -4.4343    1.5199 H         1 <0>         0.1444
     38 H10        -5.8009   -5.6566    1.9135 H         1 <0>         0.1289
     39 H11        -5.8398   -1.3860   -0.5877 H         1 <0>         0.1342
     40 H12       -10.1507   -3.7887    0.1423 H         1 <0>         0.2179
@<TRIPOS>BOND
     1    1    6 ar
     2    1    2 ar
     3    1   30 1
     4    2    3 ar
     5    2   31 1
     6    3    4 ar
     7    3   32 1
     8    4    5 ar
     9    4   29 1
    10    5    6 ar
    11    5    7 1
    12    6   33 1
    13    7    8 1
    14    7   34 1
    15    8   13 ar
    16    8    9 ar
    17    9   10 ar
    18    9   25 1
    19   10   11 ar
    20   10   35 1
    21   11   12 ar
    22   12   13 ar
    23   12   14 1
    24   14   15 1
    25   14   36 1
    26   15   20 ar
    27   15   16 ar
    28   16   17 ar
    29   16   37 1
    30   17   18 ar
    31   17   38 1
    32   18   23 1
    33   18   19 ar
    34   19   20 ar
    35   19   21 1
    36   20   39 1
    37   21   22 2
    38   22   23 1
    39   22   40 1
    40   23   24 1
    41   25   26 1
    42   25   27 1
    43   25   28 1
@<TRIPOS>MOLECULE
CHEMBL326501
   39    42     0     0     0
SMALL
USER_CHARGES

@<TRIPOS>ATOM
      1 C1         -0.0164    1.3567    0.0095 C.ar      1 <0>        -0.1179
      2 C2          1.1685    2.0906    0.0021 C.ar      1 <0>        -0.1121
      3 C3          2.3785    1.4679   -0.0132 C.ar      1 <0>        -0.1088
      4 C4          2.4378    0.0637   -0.0214 C.ar      1 <0>        -0.0319
      5 C5          1.2328   -0.6827   -0.0134 C.ar      1 <0>        -0.0520
      6 C6          0.0021   -0.0041    0.0020 C.ar      1 <0>        -0.1036
      7 C7          1.2920   -2.0865   -0.0210 C.ar      1 <0>        -0.1011
      8 C8          2.5022   -2.7094   -0.0359 C.ar      1 <0>        -0.1153
      9 C9          3.6867   -1.9757   -0.0433 C.ar      1 <0>        -0.0981
     10 C10         3.6681   -0.6146   -0.0367 C.ar      1 <0>        -0.0607
     11 C11         4.9603    0.1606   -0.0459 C.3       1 <0>        -0.0986
     12 C12         5.3414    0.5186    1.3675 C.2       1 <0>         0.5221
     13 O1          4.6333    0.1777    2.2914 O.2       1 <0>        -0.4952
     14 N1          6.4691    1.2175    1.6049 N.am      1 <0>        -0.6386
     15 C13         6.8235    1.5504    2.9194 C.2       1 <0>         0.3036
     16 C14         6.1031    1.2169    4.0776 C.2       1 <0>        -0.2589
     17 C15         6.7718    1.7180    5.1409 C.2       1 <0>         0.1307
     18 N2          7.8737    2.3455    4.6787 N.pl3     1 <0>        -0.4674
     19 H1          8.5402    2.7984    5.2187 H         1 <0>         0.4390
     20 N3          7.8896    2.2233    3.2834 N.2       1 <0>        -0.3187
     21 C16         6.3594    1.5977    6.5854 C.3       1 <0>        -0.0986
     22 C17         6.6940    2.7657    7.5152 C.3       1 <0>        -0.1702
     23 C18         7.4702    1.4520    7.6274 C.3       1 <0>        -0.1699
     24 H2         -0.9634    1.8756    0.0259 H         1 <0>         0.1233
     25 H3          1.1258    3.1698    0.0084 H         1 <0>         0.1224
     26 H4          3.2883    2.0497   -0.0195 H         1 <0>         0.1211
     27 H5         -0.9241   -0.5595    0.0082 H         1 <0>         0.1274
     28 H6          0.3820   -2.6682   -0.0147 H         1 <0>         0.1276
     29 H7          2.5450   -3.7886   -0.0417 H         1 <0>         0.1250
     30 H8          4.6338   -2.4947   -0.0548 H         1 <0>         0.1228
     31 H9          5.7467   -0.4491   -0.4909 H         1 <0>         0.1126
     32 H10         4.8331    1.0722   -0.6299 H         1 <0>         0.1111
     33 H11         7.0354    1.4901    0.8661 H         1 <0>         0.4165
     34 H12         5.1789    0.6592    4.1129 H         1 <0>         0.1726
     35 H13         5.4273    1.0620    6.7651 H         1 <0>         0.1341
     36 H14         7.2124    3.6212    7.0822 H         1 <0>         0.0947
     37 H15         5.9819    2.9987    8.3069 H         1 <0>         0.1080
     38 H16         7.2687    0.8207    8.4928 H         1 <0>         0.1080
     39 H17         8.4992    1.4431    7.2681 H         1 <0>         0.0949
@<TRIPOS>BOND
     1    1    6 ar
     2    1    2 ar
     3    1   24 1
     4    2    3 ar
     5    2   25 1
     6    3    4 ar
     7    3   26 1
     8    4   10 ar
     9    4    5 ar
    10    5    6 ar
    11    5    7 ar
    12    6   27 1
    13    7    8 ar
    14    7   28 1
    15    8    9 ar
    16    8   29 1
    17    9   10 ar
    18    9   30 1
    19   10   11 1
    20   11   12 1
    21   11   31 1
    22   11   32 1
    23   12   13 2
    24   12   14 am
    25   14   15 1
    26   14   33 1
    27   15   20 2
    28   15   16 1
    29   16   17 2
    30   16   34 1
    31   17   18 1
    32   17   21 1
    33   18   19 1
    34   18   20 1
    35   21   23 1
    36   21   22 1
    37   21   35 1
    38   22   23 1
    39   22   36 1
    40   22   37 1
    41   23   38 1
    42   23   39 1
@<TRIPOS>MOLECULE
CHEMBL326501
   39    42     0     0     0
SMALL
USER_CHARGES

@<TRIPOS>ATOM
      1 C1         -0.0164    1.3567    0.0095 C.ar      1 <0>        -0.1179
      2 C2          1.1685    2.0906    0.0021 C.ar      1 <0>        -0.1106
      3 C3          2.3785    1.4679   -0.0132 C.ar      1 <0>        -0.1106
      4 C4          2.4378    0.0637   -0.0214 C.ar      1 <0>        -0.0316
      5 C5          1.2328   -0.6827   -0.0134 C.ar      1 <0>        -0.0520
      6 C6          0.0021   -0.0041    0.0020 C.ar      1 <0>        -0.1024
      7 C7          1.2920   -2.0865   -0.0210 C.ar      1 <0>        -0.0990
      8 C8          2.5022   -2.7094   -0.0359 C.ar      1 <0>        -0.1160
      9 C9          3.6867   -1.9757   -0.0433 C.ar      1 <0>        -0.0964
     10 C10         3.6681   -0.6146   -0.0367 C.ar      1 <0>        -0.0642
     11 C11         4.9603    0.1606   -0.0459 C.3       1 <0>        -0.0963
     12 C12         5.3414    0.5186    1.3675 C.2       1 <0>         0.5196
     13 O1          4.6333    0.1777    2.2914 O.2       1 <0>        -0.4847
     14 N1          6.4691    1.2175    1.6049 N.am      1 <0>        -0.6540
     15 C13         6.8218    1.5488    2.9130 C.2       1 <0>         0.3065
     16 C14         6.1246    1.2328    4.0385 C.2       1 <0>        -0.2694
     17 C15         6.8220    1.7506    5.1333 C.2       1 <0>         0.1220
     18 N2          7.8950    2.3539    4.6897 N.2       1 <0>        -0.2793
     19 H1          8.6072    2.5898    2.7050 H         1 <0>         0.4365
     20 N3          7.9219    2.2373    3.2941 N.pl3     1 <0>        -0.4911
     21 C16         6.4086    1.6345    6.5779 C.3       1 <0>        -0.0852
     22 C17         4.9592    1.2397    6.8684 C.3       1 <0>        -0.1632
     23 C18         5.4256    2.6755    7.1173 C.3       1 <0>        -0.1631
     24 H2         -0.9634    1.8756    0.0259 H         1 <0>         0.1239
     25 H3          1.1258    3.1698    0.0084 H         1 <0>         0.1225
     26 H4          3.2883    2.0497   -0.0195 H         1 <0>         0.1198
     27 H5         -0.9241   -0.5595    0.0082 H         1 <0>         0.1281
     28 H6          0.3820   -2.6682   -0.0147 H         1 <0>         0.1284
     29 H7          2.5450   -3.7886   -0.0417 H         1 <0>         0.1257
     30 H8          4.6338   -2.4947   -0.0548 H         1 <0>         0.1227
     31 H9          5.7467   -0.4491   -0.4909 H         1 <0>         0.1126
     32 H10         4.8331    1.0722   -0.6299 H         1 <0>         0.1110
     33 H11         7.0354    1.4901    0.8661 H         1 <0>         0.4126
     34 H12         5.1973    0.6806    4.0783 H         1 <0>         0.1737
     35 H13         7.1767    1.2674    7.2586 H         1 <0>         0.1216
     36 H14         4.3047    1.0640    6.0147 H         1 <0>         0.1014
     37 H15         4.7736    0.6125    7.7403 H         1 <0>         0.1022
     38 H16         5.5467    2.9929    8.1530 H         1 <0>         0.1014
     39 H17         5.0779    3.4443    6.4273 H         1 <0>         0.0949
@<TRIPOS>BOND
     1    1    6 ar
     2    1    2 ar
     3    1   24 1
     4    2    3 ar
     5    2   25 1
     6    3    4 ar
     7    3   26 1
     8    4   10 ar
     9    4    5 ar
    10    5    6 ar
    11    5    7 ar
    12    6   27 1
    13    7    8 ar
    14    7   28 1
    15    8    9 ar
    16    8   29 1
    17    9   10 ar
    18    9   30 1
    19   10   11 1
    20   11   12 1
    21   11   31 1
    22   11   32 1
    23   12   13 2
    24   12   14 am
    25   14   33 1
    26   14   15 1
    27   15   16 2
    28   15   20 1
    29   16   17 1
    30   16   34 1
    31   17   18 2
    32   17   21 1
    33   18   20 1
    34   19   20 1
    35   21   23 1
    36   21   22 1
    37   21   35 1
    38   22   23 1
    39   22   36 1
    40   22   37 1
    41   23   38 1
    42   23   39 1
@<TRIPOS>MOLECULE
CHEMBL115220
   39    42     0     0     0
SMALL
USER_CHARGES

@<TRIPOS>ATOM
      1 C1         -0.0164    1.3567    0.0095 C.ar      1 <0>        -0.1158
      2 C2          1.1686    2.0905    0.0021 C.ar      1 <0>        -0.1173
      3 C3          2.3785    1.4675   -0.0131 C.ar      1 <0>        -0.1051
      4 C4          2.4375    0.0634   -0.0211 C.ar      1 <0>        -0.0499
      5 C5          3.6681   -0.6153   -0.0364 C.ar      1 <0>        -0.0876
      6 C6          3.6865   -1.9761   -0.0434 C.ar      1 <0>        -0.0678
      7 C7          2.5015   -2.7098   -0.0357 C.ar      1 <0>        -0.1000
      8 C8          1.2917   -2.0868   -0.0209 C.ar      1 <0>        -0.1039
      9 C9          1.2327   -0.6827   -0.0133 C.ar      1 <0>        -0.0492
     10 C10         0.0021   -0.0041    0.0020 C.ar      1 <0>        -0.1073
     11 C11         5.0079   -2.7004   -0.0602 C.3       1 <0>        -0.0974
     12 C12         5.4625   -2.9490    1.3549 C.2       1 <0>         0.5223
     13 O1          4.7806   -2.5748    2.2856 O.2       1 <0>        -0.4983
     14 N1          6.6269   -3.5871    1.5864 N.am      1 <0>        -0.6384
     15 C13         7.0497   -3.8183    2.9025 C.2       1 <0>         0.3033
     16 C14         6.3603   -3.4462    4.0677 C.2       1 <0>        -0.2593
     17 C15         7.0951   -3.8462    5.1302 C.2       1 <0>         0.1307
     18 N2          8.2078   -4.4487    4.6608 N.pl3     1 <0>        -0.4675
     19 H1          8.9172   -4.8341    5.1985 H         1 <0>         0.4391
     20 N3          8.1564   -4.4253    3.2611 N.2       1 <0>        -0.3189
     21 C16         6.7356   -3.6529    6.5809 C.3       1 <0>        -0.0987
     22 C17         7.8815   -3.4208    7.5678 C.3       1 <0>        -0.1702
     23 C18         7.1364   -4.7571    7.5612 C.3       1 <0>        -0.1699
     24 H2         -0.9633    1.8757    0.0259 H         1 <0>         0.1231
     25 H3          1.1260    3.1696    0.0083 H         1 <0>         0.1231
     26 H4          3.2884    2.0491   -0.0194 H         1 <0>         0.1265
     27 H5          4.5943   -0.0599   -0.0428 H         1 <0>         0.1257
     28 H6          2.5441   -3.7890   -0.0419 H         1 <0>         0.1222
     29 H7          0.3816   -2.6684   -0.0154 H         1 <0>         0.1282
     30 H8         -0.9241   -0.5595    0.0082 H         1 <0>         0.1269
     31 H9          4.8935   -3.6529   -0.5777 H         1 <0>         0.1112
     32 H10         5.7491   -2.0921   -0.5784 H         1 <0>         0.1106
     33 H11         7.1722   -3.8864    0.8421 H         1 <0>         0.4167
     34 H12         5.4114   -2.9319    4.1082 H         1 <0>         0.1728
     35 H13         5.7970   -3.1309    6.7671 H         1 <0>         0.1342
     36 H14         8.8953   -3.4079    7.1678 H         1 <0>         0.0947
     37 H15         7.6969   -2.7458    8.4035 H         1 <0>         0.1081
     38 H16         6.4617   -4.9612    8.3926 H         1 <0>         0.1080
     39 H17         7.6601   -5.6233    7.1569 H         1 <0>         0.0949
@<TRIPOS>BOND
     1    1   10 ar
     2    1    2 ar
     3    1   24 1
     4    2    3 ar
     5    2   25 1
     6    3    4 ar
     7    3   26 1
     8    4    9 ar
     9    4    5 ar
    10    5    6 ar
    11    5   27 1
    12    6    7 ar
    13    6   11 1
    14    7    8 ar
    15    7   28 1
    16    8    9 ar
    17    8   29 1
    18    9   10 ar
    19   10   30 1
    20   11   12 1
    21   11   31 1
    22   11   32 1
    23   12   13 2
    24   12   14 am
    25   14   15 1
    26   14   33 1
    27   15   20 2
    28   15   16 1
    29   16   17 2
    30   16   34 1
    31   17   18 1
    32   17   21 1
    33   18   19 1
    34   18   20 1
    35   21   23 1
    36   21   22 1
    37   21   35 1
    38   22   23 1
    39   22   36 1
    40   22   37 1
    41   23   38 1
    42   23   39 1
@<TRIPOS>MOLECULE
CHEMBL115220
   39    42     0     0     0
SMALL
USER_CHARGES

@<TRIPOS>ATOM
      1 C1         -0.0164    1.3567    0.0095 C.ar      1 <0>        -0.1149
      2 C2          1.1686    2.0905    0.0021 C.ar      1 <0>        -0.1164
      3 C3          2.3785    1.4675   -0.0131 C.ar      1 <0>        -0.1053
      4 C4          2.4375    0.0634   -0.0211 C.ar      1 <0>        -0.0501
      5 C5          3.6681   -0.6153   -0.0364 C.ar      1 <0>        -0.0866
      6 C6          3.6865   -1.9761   -0.0434 C.ar      1 <0>        -0.0706
      7 C7          2.5015   -2.7098   -0.0357 C.ar      1 <0>        -0.1008
      8 C8          1.2917   -2.0868   -0.0209 C.ar      1 <0>        -0.1027
      9 C9          1.2327   -0.6827   -0.0133 C.ar      1 <0>        -0.0485
     10 C10         0.0021   -0.0041    0.0020 C.ar      1 <0>        -0.1072
     11 C11         5.0079   -2.7004   -0.0602 C.3       1 <0>        -0.0952
     12 C12         5.4625   -2.9490    1.3549 C.2       1 <0>         0.5198
     13 O1          4.7806   -2.5748    2.2856 O.2       1 <0>        -0.4878
     14 N1          6.6269   -3.5871    1.5864 N.am      1 <0>        -0.6538
     15 C13         7.0477   -3.8172    2.8961 C.2       1 <0>         0.3063
     16 C14         6.3861   -3.4540    4.0288 C.2       1 <0>        -0.2698
     17 C15         7.1488   -3.8726    5.1225 C.2       1 <0>         0.1220
     18 N2          8.2255   -4.4635    4.6713 N.2       1 <0>        -0.2794
     19 H1          8.8538   -4.8192    2.6761 H         1 <0>         0.4365
     20 N3          8.1844   -4.4469    3.2713 N.pl3     1 <0>        -0.4911
     21 C16         6.7924   -3.6763    6.5736 C.3       1 <0>        -0.0853
     22 C17         5.7106   -2.6455    6.9022 C.3       1 <0>        -0.1632
     23 C18         7.1763   -2.3445    7.2215 C.3       1 <0>        -0.1632
     24 H2         -0.9633    1.8757    0.0259 H         1 <0>         0.1237
     25 H3          1.1260    3.1696    0.0083 H         1 <0>         0.1236
     26 H4          3.2884    2.0491   -0.0194 H         1 <0>         0.1266
     27 H5          4.5943   -0.0599   -0.0428 H         1 <0>         0.1254
     28 H6          2.5441   -3.7890   -0.0419 H         1 <0>         0.1220
     29 H7          0.3816   -2.6684   -0.0154 H         1 <0>         0.1287
     30 H8         -0.9241   -0.5595    0.0082 H         1 <0>         0.1274
     31 H9          4.8935   -3.6529   -0.5777 H         1 <0>         0.1112
     32 H10         5.7491   -2.0921   -0.5784 H         1 <0>         0.1105
     33 H11         7.1722   -3.8864    0.8421 H         1 <0>         0.4128
     34 H12         5.4403   -2.9346    4.0743 H         1 <0>         0.1738
     35 H13         6.8411   -4.5707    7.1947 H         1 <0>         0.1216
     36 H14         5.2567   -2.1092    6.0688 H         1 <0>         0.1014
     37 H15         5.0472   -2.8617    7.7396 H         1 <0>         0.1022
     38 H16         7.4772   -2.3627    8.2690 H         1 <0>         0.1014
     39 H17         7.6867   -1.6103    6.5982 H         1 <0>         0.0949
@<TRIPOS>BOND
     1    1   10 ar
     2    1    2 ar
     3    1   24 1
     4    2    3 ar
     5    2   25 1
     6    3    4 ar
     7    3   26 1
     8    4    9 ar
     9    4    5 ar
    10    5    6 ar
    11    5   27 1
    12    6    7 ar
    13    6   11 1
    14    7    8 ar
    15    7   28 1
    16    8    9 ar
    17    8   29 1
    18    9   10 ar
    19   10   30 1
    20   11   12 1
    21   11   31 1
    22   11   32 1
    23   12   13 2
    24   12   14 am
    25   14   33 1
    26   14   15 1
    27   15   16 2
    28   15   20 1
    29   16   17 1
    30   16   34 1
    31   17   18 2
    32   17   21 1
    33   18   20 1
    34   19   20 1
    35   21   23 1
    36   21   22 1
    37   21   35 1
    38   22   23 1
    39   22   36 1
    40   22   37 1
    41   23   38 1
    42   23   39 1
@<TRIPOS>MOLECULE
CHEMBL509406
   65    68     0     0     0
SMALL
USER_CHARGES

@<TRIPOS>ATOM
      1 C1          0.9463    0.9591   -0.6204 C.3       1 <0>        -0.1245
      2 C2          0.8939   -0.5464   -0.5773 C.cat     1 <0>         0.3352
      3 N1          0.6264   -1.3253   -1.5918 N.pl3     1 <0>        -0.4764
      4 C3          0.6655   -2.6022   -1.1987 C.2       1 <0>         0.0724
      5 C4          0.9730   -2.6214    0.1283 C.2       1 <0>         0.0695
      6 N2          1.1214   -1.3068    0.5133 N.pl3     1 <0>        -0.3863
      7 C5          1.4595   -0.8255    1.8550 C.3       1 <0>         0.1064
      8 C6          2.6999    0.0670    1.7792 C.3       1 <0>        -0.1785
      9 C7          0.2863   -0.0215    2.4190 C.3       1 <0>        -0.1789
     10 C8          1.1225   -3.8153    0.9837 C.ar      1 <0>         0.2468
     11 C9          2.1829   -3.9099    1.8964 C.ar      1 <0>        -0.0394
     12 C10         2.2802   -5.0489    2.6760 C.ar      1 <0>         0.1959
     13 N3          1.3764   -6.0078    2.5379 N.ar      1 <0>        -0.5124
     14 C11         0.3846   -5.8920    1.6675 C.ar      1 <0>         0.5707
     15 N4          0.2484   -4.8190    0.9052 N.ar      1 <0>        -0.5122
     16 N5         -0.5389   -6.9208    1.5559 N.pl3     1 <0>        -0.6234
     17 C12        -0.4832   -8.0041    2.4288 C.ar      1 <0>         0.2223
     18 C13        -0.0887   -7.8112    3.7505 C.ar      1 <0>        -0.1352
     19 C14        -0.0318   -8.8682    4.6130 C.ar      1 <0>        -0.0325
     20 C15        -0.3702  -10.1515    4.1722 C.ar      1 <0>        -0.1983
     21 C16        -0.7674  -10.3493    2.8439 C.ar      1 <0>         0.1961
     22 C17        -0.8272   -9.2745    1.9800 C.ar      1 <0>        -0.1896
     23 F1         -1.0957  -11.5863    2.4111 F         1 <0>        -0.1038
     24 C18        -0.3085  -11.2928    5.1029 C.2       1 <0>         0.5673
     25 O1         -0.6032  -12.4081    4.7178 O.2       1 <0>        -0.5112
     26 N6          0.0744  -11.1004    6.3807 N.am      1 <0>        -0.7268
     27 C19         0.1357  -12.2348    7.3057 C.3       1 <0>         0.1365
     28 C20        -1.2473  -12.4701    7.9199 C.3       1 <0>        -0.1620
     29 C21        -1.1585  -13.6041    8.9435 C.3       1 <0>        -0.0039
     30 N7         -0.2075  -13.2404   10.0007 N.4       1 <0>        -0.3861
     31 C22         1.1357  -13.0834    9.4300 C.3       1 <0>        -0.0023
     32 C23         1.1352  -11.9294    8.4251 C.3       1 <0>        -0.1563
     33 C24        -0.1839  -14.2972   11.0208 C.3       1 <0>        -0.0481
     34 F2          3.0878   -2.9133    2.0114 F         1 <0>        -0.1099
     35 H1          1.9770    1.2828   -0.7652 H         1 <0>         0.1286
     36 H2          0.3327    1.3205   -1.4456 H         1 <0>         0.1225
     37 H3          0.5671    1.3628    0.3183 H         1 <0>         0.1224
     38 H4          0.4853   -3.4653   -1.8223 H         1 <0>         0.2318
     39 H5          1.6631   -1.6761    2.5055 H         1 <0>         0.1306
     40 H6          2.4963    0.9176    1.1287 H         1 <0>         0.0787
     41 H7          2.9514    0.4251    2.7775 H         1 <0>         0.1053
     42 H8          3.5357   -0.5058    1.3774 H         1 <0>         0.0793
     43 H9         -0.6250   -0.6162    2.3568 H         1 <0>         0.0735
     44 H10         0.4857    0.2301    3.4607 H         1 <0>         0.1049
     45 H11         0.1626    0.8945    1.8413 H         1 <0>         0.0798
     46 H12         3.0843   -5.1554    3.3890 H         1 <0>         0.2011
     47 H13        -1.2236   -6.8856    0.8697 H         1 <0>         0.4364
     48 H14         0.1737   -6.8217    4.0945 H         1 <0>         0.1458
     49 H15         0.2751   -8.7130    5.6368 H         1 <0>         0.1390
     50 H16        -1.1371   -9.4206    0.9558 H         1 <0>         0.1535
     51 H17         0.3094  -10.2109    6.6879 H         1 <0>         0.4046
     52 H18         0.4533  -13.1276    6.7671 H         1 <0>         0.1083
     53 H19        -1.5858  -11.5594    8.4140 H         1 <0>         0.0911
     54 H20        -1.9525  -12.7428    7.1348 H         1 <0>         0.1181
     55 H21        -2.1416  -13.7743    9.3825 H         1 <0>         0.1360
     56 H22        -0.8202  -14.5142    8.4483 H         1 <0>         0.1331
     57 H23         1.8464  -12.8692   10.2282 H         1 <0>         0.1380
     58 H24         1.4251  -14.0046    8.9244 H         1 <0>         0.1336
     59 H25         2.1329  -11.8155    8.0011 H         1 <0>         0.1203
     60 H26         0.8461  -11.0075    8.9297 H         1 <0>         0.0946
     61 H27         0.1231  -15.2375   10.5628 H         1 <0>         0.1236
     62 H28         0.5221  -14.0282   11.8065 H         1 <0>         0.1256
     63 H29        -1.1795  -14.4102   11.4500 H         1 <0>         0.1257
     64 H30        -0.4948  -12.3717   10.4259 H         1 <0>         0.4244
     65 H31         0.4295   -1.0232   -2.4923 H         1 <0>         0.4683
@<TRIPOS>BOND
     1    1    2 1
     2    1   35 1
     3    1   36 1
     4    1   37 1
     5    2    6 1
     6    2    3 2
     7    3    4 1
     8    3   65 1
     9    4    5 2
    10    4   38 1
    11    5    6 1
    12    5   10 1
    13    6    7 1
    14    7    8 1
    15    7    9 1
    16    7   39 1
    17    8   40 1
    18    8   41 1
    19    8   42 1
    20    9   43 1
    21    9   44 1
    22    9   45 1
    23   10   15 ar
    24   10   11 ar
    25   11   12 ar
    26   11   34 1
    27   12   13 ar
    28   12   46 1
    29   13   14 ar
    30   14   15 ar
    31   14   16 1
    32   16   17 1
    33   16   47 1
    34   17   22 ar
    35   17   18 ar
    36   18   19 ar
    37   18   48 1
    38   19   20 ar
    39   19   49 1
    40   20   21 ar
    41   20   24 1
    42   21   22 ar
    43   21   23 1
    44   22   50 1
    45   24   25 2
    46   24   26 am
    47   26   27 1
    48   26   51 1
    49   27   32 1
    50   27   28 1
    51   27   52 1
    52   28   29 1
    53   28   53 1
    54   28   54 1
    55   29   30 1
    56   29   55 1
    57   29   56 1
    58   30   31 1
    59   30   33 1
    60   30   64 1
    61   31   32 1
    62   31   57 1
    63   31   58 1
    64   32   59 1
    65   32   60 1
    66   33   61 1
    67   33   62 1
    68   33   63 1
@<TRIPOS>MOLECULE
CHEMBL509406
   64    67     0     0     0
SMALL
USER_CHARGES

@<TRIPOS>ATOM
      1 C1          0.9462    0.9590   -0.6205 C.3       1 <0>        -0.0822
      2 C2          0.8939   -0.5464   -0.5774 C.2       1 <0>         0.2465
      3 N1          0.6264   -1.3254   -1.5918 N.2       1 <0>        -0.4908
      4 C3          0.6655   -2.6022   -1.1987 C.2       1 <0>         0.0618
      5 C4          0.9731   -2.6215    0.1283 C.2       1 <0>        -0.0331
      6 N2          1.1215   -1.3069    0.5133 N.pl3     1 <0>        -0.4318
      7 C5          1.4595   -0.8255    1.8550 C.3       1 <0>         0.1161
      8 C6          2.6999    0.0670    1.7791 C.3       1 <0>        -0.1685
      9 C7          0.2864   -0.0215    2.4190 C.3       1 <0>        -0.1711
     10 C8          1.1226   -3.8154    0.9838 C.ar      1 <0>         0.2903
     11 C9          2.1830   -3.9098    1.8964 C.ar      1 <0>        -0.0513
     12 C10         2.2803   -5.0489    2.6760 C.ar      1 <0>         0.1767
     13 N3          1.3765   -6.0078    2.5380 N.ar      1 <0>        -0.5341
     14 C11         0.3848   -5.8920    1.6676 C.ar      1 <0>         0.5573
     15 N4          0.2485   -4.8191    0.9052 N.ar      1 <0>        -0.5172
     16 N5         -0.5388   -6.9208    1.5560 N.pl3     1 <0>        -0.6309
     17 C12        -0.4831   -8.0041    2.4289 C.ar      1 <0>         0.2407
     18 C13        -0.0885   -7.8112    3.7506 C.ar      1 <0>        -0.1374
     19 C14        -0.0316   -8.8682    4.6132 C.ar      1 <0>        -0.0326
     20 C15        -0.3700  -10.1515    4.1724 C.ar      1 <0>        -0.2112
     21 C16        -0.7672  -10.3493    2.8441 C.ar      1 <0>         0.1957
     22 C17        -0.8270   -9.2745    1.9802 C.ar      1 <0>        -0.1983
     23 F1         -1.0955  -11.5863    2.4114 F         1 <0>        -0.1084
     24 C18        -0.3083  -11.2928    5.1031 C.2       1 <0>         0.5710
     25 O1         -0.6029  -12.4080    4.7180 O.2       1 <0>        -0.5169
     26 N6          0.0747  -11.1004    6.3809 N.am      1 <0>        -0.7288
     27 C19         0.1360  -12.2347    7.3060 C.3       1 <0>         0.1373
     28 C20        -1.2469  -12.4700    7.9201 C.3       1 <0>        -0.1625
     29 C21        -1.1582  -13.6040    8.9438 C.3       1 <0>        -0.0032
     30 N7         -0.2071  -13.2403   10.0010 N.4       1 <0>        -0.3863
     31 C22         1.1360  -13.0832    9.4302 C.3       1 <0>        -0.0017
     32 C23         1.1355  -11.9292    8.4253 C.3       1 <0>        -0.1569
     33 C24        -0.1835  -14.2971   11.0211 C.3       1 <0>        -0.0474
     34 F2          3.0878   -2.9132    2.0114 F         1 <0>        -0.1129
     35 H1          1.9769    1.2828   -0.7652 H         1 <0>         0.0877
     36 H2          0.3326    1.3204   -1.4457 H         1 <0>         0.0971
     37 H3          0.5670    1.3628    0.3183 H         1 <0>         0.0825
     38 H4          0.4853   -3.4654   -1.8222 H         1 <0>         0.1787
     39 H5          1.6631   -1.6761    2.5055 H         1 <0>         0.1031
     40 H6          2.9514    0.4251    2.7774 H         1 <0>         0.0818
     41 H7          3.5357   -0.5058    1.3773 H         1 <0>         0.0688
     42 H8          2.4963    0.9176    1.1286 H         1 <0>         0.0734
     43 H9         -0.6250   -0.6162    2.3568 H         1 <0>         0.0633
     44 H10         0.4857    0.2301    3.4606 H         1 <0>         0.0816
     45 H11         0.1626    0.8945    1.8413 H         1 <0>         0.0741
     46 H12         3.0844   -5.1553    3.3890 H         1 <0>         0.1894
     47 H13        -1.2235   -6.8856    0.8698 H         1 <0>         0.4342
     48 H14         0.1739   -6.8217    4.0946 H         1 <0>         0.1474
     49 H15         0.2753   -8.7130    5.6369 H         1 <0>         0.1355
     50 H16        -1.1370   -9.4206    0.9560 H         1 <0>         0.1518
     51 H17         0.3097  -10.2108    6.6881 H         1 <0>         0.4051
     52 H18         0.4536  -13.1275    6.7673 H         1 <0>         0.1071
     53 H19        -1.5855  -11.5593    8.4142 H         1 <0>         0.0911
     54 H20        -1.9522  -12.7427    7.1351 H         1 <0>         0.1184
     55 H21        -2.1412  -13.7742    9.3828 H         1 <0>         0.1349
     56 H22        -0.8198  -14.5141    8.4486 H         1 <0>         0.1325
     57 H23         1.8467  -12.8690   10.2284 H         1 <0>         0.1370
     58 H24         1.4255  -14.0045    8.9247 H         1 <0>         0.1330
     59 H25         2.1332  -11.8154    8.0013 H         1 <0>         0.1206
     60 H26         0.8464  -11.0073    8.9299 H         1 <0>         0.0948
     61 H27         0.1235  -15.2373   10.5631 H         1 <0>         0.1229
     62 H28         0.5225  -14.0280   11.8067 H         1 <0>         0.1247
     63 H29        -1.1791  -14.4100   11.4503 H         1 <0>         0.1248
     64 H30        -0.4945  -12.3715   10.4262 H         1 <0>         0.4246
@<TRIPOS>BOND
     1    1    2 1
     2    1   35 1
     3    1   36 1
     4    1   37 1
     5    2    6 1
     6    2    3 2
     7    3    4 1
     8    4    5 2
     9    4   38 1
    10    5    6 1
    11    5   10 1
    12    6    7 1
    13    7    8 1
    14    7    9 1
    15    7   39 1
    16    8   40 1
    17    8   41 1
    18    8   42 1
    19    9   43 1
    20    9   44 1
    21    9   45 1
    22   10   15 ar
    23   10   11 ar
    24   11   12 ar
    25   11   34 1
    26   12   13 ar
    27   12   46 1
    28   13   14 ar
    29   14   15 ar
    30   14   16 1
    31   16   17 1
    32   16   47 1
    33   17   22 ar
    34   17   18 ar
    35   18   19 ar
    36   18   48 1
    37   19   20 ar
    38   19   49 1
    39   20   21 ar
    40   20   24 1
    41   21   22 ar
    42   21   23 1
    43   22   50 1
    44   24   25 2
    45   24   26 am
    46   26   27 1
    47   26   51 1
    48   27   32 1
    49   27   28 1
    50   27   52 1
    51   28   29 1
    52   28   53 1
    53   28   54 1
    54   29   30 1
    55   29   55 1
    56   29   56 1
    57   30   31 1
    58   30   33 1
    59   30   64 1
    60   31   32 1
    61   31   57 1
    62   31   58 1
    63   32   59 1
    64   32   60 1
    65   33   61 1
    66   33   62 1
    67   33   63 1
@<TRIPOS>MOLECULE
CHEMBL92288
   60    63     0     0     0
SMALL
USER_CHARGES

@<TRIPOS>ATOM
      1 C1         -0.0187    1.5258    0.0104 C.3       1 <0>        -0.1628
      2 C2          0.0021   -0.0041    0.0020 C.3       1 <0>         0.1339
      3 C3          0.7421   -0.5109    1.2415 C.3       1 <0>        -0.1627
      4 N1         -1.3723   -0.5112    0.0124 N.pl3     1 <0>        -0.4698
      5 C4         -2.3128   -0.2749    0.9723 C.2       1 <0>         0.2339
      6 N2         -3.4234   -0.8781    0.6638 N.2       1 <0>        -0.4547
      7 C5         -3.2674   -1.5381   -0.5102 C.ar      1 <0>        -0.1539
      8 C6         -1.9517   -1.3058   -0.9441 C.ar      1 <0>         0.3478
      9 N3         -1.5421   -1.8450   -2.0880 N.ar      1 <0>        -0.6137
     10 C7         -2.3616   -2.5894   -2.8127 C.ar      1 <0>         0.6293
     11 N4         -3.6124   -2.8321   -2.4423 N.ar      1 <0>        -0.6248
     12 C8         -4.1011   -2.3388   -1.3098 C.ar      1 <0>         0.5410
     13 N5         -5.4072   -2.5960   -0.9325 N.pl3     1 <0>        -0.6893
     14 C9         -6.2626   -3.4328   -1.7777 C.3       1 <0>         0.1715
     15 C10        -7.6256   -3.5562   -1.1470 C.ar      1 <0>        -0.1126
     16 C11        -7.8830   -4.5840   -0.2578 C.ar      1 <0>        -0.0934
     17 C12        -9.1295   -4.7017    0.3229 C.ar      1 <0>        -0.1128
     18 C13       -10.1297   -3.7828    0.0118 C.ar      1 <0>        -0.0335
     19 C14        -9.8649   -2.7494   -0.8845 C.ar      1 <0>        -0.1129
     20 C15        -8.6131   -2.6378   -1.4550 C.ar      1 <0>        -0.0933
     21 C16       -11.4720   -3.9045    0.6326 C.ar      1 <0>        -0.0507
     22 C17       -11.7351   -4.9348    1.5330 C.ar      1 <0>        -0.1091
     23 C18       -12.9852   -5.0430    2.1078 C.ar      1 <0>        -0.1178
     24 C19       -13.9761   -4.1314    1.7911 C.ar      1 <0>        -0.1166
     25 C20       -13.7205   -3.1069    0.8975 C.ar      1 <0>        -0.1178
     26 C21       -12.4721   -2.9856    0.3216 C.ar      1 <0>        -0.1092
     27 N6         -1.8979   -3.1336   -3.9991 N.pl3     1 <0>        -0.6910
     28 C22        -2.7840   -3.9617   -4.8209 C.3       1 <0>         0.1141
     29 C23        -2.0311   -4.4336   -6.0664 C.3       1 <0>         0.0943
     30 C24        -2.9904   -5.1932   -6.9849 C.3       1 <0>         0.0487
     31 O1         -2.3183   -5.5329   -8.1994 O.3       1 <0>        -0.5634
     32 O2         -0.9606   -5.2966   -5.6774 O.3       1 <0>        -0.5483
     33 H1          1.0039    1.9031    0.0027 H         1 <0>         0.0797
     34 H2         -0.5459    1.8868   -0.8726 H         1 <0>         0.0630
     35 H3         -0.5289    1.8773    0.9072 H         1 <0>         0.0656
     36 H4          0.5123   -0.3556   -0.8948 H         1 <0>         0.1066
     37 H5          0.2319   -0.1594    2.1383 H         1 <0>         0.0655
     38 H6          0.7568   -1.6008    1.2356 H         1 <0>         0.0631
     39 H7          1.7647   -0.1336    1.2338 H         1 <0>         0.0797
     40 H8         -2.1580    0.3239    1.8577 H         1 <0>         0.2146
     41 H9         -5.7566   -2.2223   -0.1084 H         1 <0>         0.4200
     42 H10        -6.3581   -2.9762   -2.7629 H         1 <0>         0.0777
     43 H11        -5.8176   -4.4228   -1.8777 H         1 <0>         0.0773
     44 H12        -7.1071   -5.2959   -0.0177 H         1 <0>         0.1265
     45 H13        -9.3295   -5.5048    1.0167 H         1 <0>         0.1278
     46 H14       -10.6367   -2.0346   -1.1294 H         1 <0>         0.1277
     47 H15        -8.4054   -1.8345   -2.1462 H         1 <0>         0.1266
     48 H16       -10.9624   -5.6476    1.7805 H         1 <0>         0.1256
     49 H17       -13.1903   -5.8412    2.8058 H         1 <0>         0.1252
     50 H18       -14.9531   -4.2200    2.2429 H         1 <0>         0.1238
     51 H19       -14.4979   -2.3981    0.6535 H         1 <0>         0.1252
     52 H20       -12.2723   -2.1827   -0.3726 H         1 <0>         0.1255
     53 H21        -0.9864   -2.9665   -4.2858 H         1 <0>         0.4185
     54 H22        -3.1109   -4.8270   -4.2442 H         1 <0>         0.0724
     55 H23        -3.6529   -3.3762   -5.1216 H         1 <0>         0.0779
     56 H24        -1.6279   -3.5705   -6.5960 H         1 <0>         0.1126
     57 H25        -3.3249   -6.1038   -6.4878 H         1 <0>         0.0534
     58 H26        -3.8521   -4.5647   -7.2100 H         1 <0>         0.0592
     59 H27        -2.8677   -6.0173   -8.8307 H         1 <0>         0.3829
     60 H28        -1.2465   -6.0874   -5.2001 H         1 <0>         0.3760
@<TRIPOS>BOND
     1    1    2 1
     2    1   33 1
     3    1   34 1
     4    1   35 1
     5    2    3 1
     6    2    4 1
     7    2   36 1
     8    3   37 1
     9    3   38 1
    10    3   39 1
    11    4    8 1
    12    4    5 1
    13    5    6 2
    14    5   40 1
    15    6    7 1
    16    7   12 ar
    17    7    8 ar
    18    8    9 ar
    19    9   10 ar
    20   10   11 ar
    21   10   27 1
    22   11   12 ar
    23   12   13 1
    24   13   14 1
    25   13   41 1
    26   14   15 1
    27   14   42 1
    28   14   43 1
    29   15   20 ar
    30   15   16 ar
    31   16   17 ar
    32   16   44 1
    33   17   18 ar
    34   17   45 1
    35   18   19 ar
    36   18   21 1
    37   19   20 ar
    38   19   46 1
    39   20   47 1
    40   21   26 ar
    41   21   22 ar
    42   22   23 ar
    43   22   48 1
    44   23   24 ar
    45   23   49 1
    46   24   25 ar
    47   24   50 1
    48   25   26 ar
    49   25   51 1
    50   26   52 1
    51   27   28 1
    52   27   53 1
    53   28   29 1
    54   28   54 1
    55   28   55 1
    56   29   30 1
    57   29   32 1
    58   29   56 1
    59   30   31 1
    60   30   57 1
    61   30   58 1
    62   31   59 1
    63   32   60 1
@<TRIPOS>MOLECULE
CHEMBL92288
   60    63     0     0     0
SMALL
USER_CHARGES

@<TRIPOS>ATOM
      1 C1         -0.0187    1.5258    0.0104 C.3       1 <0>        -0.1628
      2 C2          0.0021   -0.0041    0.0020 C.3       1 <0>         0.1339
      3 C3          0.7421   -0.5109    1.2415 C.3       1 <0>        -0.1627
      4 N1         -1.3723   -0.5112    0.0124 N.pl3     1 <0>        -0.4698
      5 C4         -2.3128   -0.2749    0.9723 C.2       1 <0>         0.2339
      6 N2         -3.4234   -0.8781    0.6638 N.2       1 <0>        -0.4547
      7 C5         -3.2674   -1.5381   -0.5102 C.ar      1 <0>        -0.1540
      8 C6         -1.9517   -1.3058   -0.9441 C.ar      1 <0>         0.3479
      9 N3         -1.5421   -1.8450   -2.0880 N.ar      1 <0>        -0.6136
     10 C7         -2.3616   -2.5894   -2.8127 C.ar      1 <0>         0.6293
     11 N4         -3.6124   -2.8321   -2.4423 N.ar      1 <0>        -0.6248
     12 C8         -4.1011   -2.3388   -1.3098 C.ar      1 <0>         0.5410
     13 N5         -5.4072   -2.5960   -0.9325 N.pl3     1 <0>        -0.6894
     14 C9         -6.2626   -3.4328   -1.7777 C.3       1 <0>         0.1714
     15 C10        -7.6256   -3.5562   -1.1470 C.ar      1 <0>        -0.1126
     16 C11        -7.8830   -4.5840   -0.2578 C.ar      1 <0>        -0.0934
     17 C12        -9.1295   -4.7017    0.3229 C.ar      1 <0>        -0.1128
     18 C13       -10.1297   -3.7828    0.0118 C.ar      1 <0>        -0.0335
     19 C14        -9.8649   -2.7494   -0.8845 C.ar      1 <0>        -0.1129
     20 C15        -8.6131   -2.6378   -1.4550 C.ar      1 <0>        -0.0934
     21 C16       -11.4720   -3.9045    0.6326 C.ar      1 <0>        -0.0507
     22 C17       -11.7351   -4.9348    1.5330 C.ar      1 <0>        -0.1091
     23 C18       -12.9852   -5.0430    2.1078 C.ar      1 <0>        -0.1178
     24 C19       -13.9761   -4.1314    1.7911 C.ar      1 <0>        -0.1166
     25 C20       -13.7205   -3.1069    0.8975 C.ar      1 <0>        -0.1178
     26 C21       -12.4721   -2.9856    0.3216 C.ar      1 <0>        -0.1092
     27 N6         -1.8979   -3.1336   -3.9991 N.pl3     1 <0>        -0.6906
     28 C22        -2.7840   -3.9617   -4.8209 C.3       1 <0>         0.1136
     29 C23        -2.0311   -4.4336   -6.0664 C.3       1 <0>         0.0943
     30 C24        -2.9566   -5.2984   -6.9246 C.3       1 <0>         0.0487
     31 O1         -2.2215   -5.8342   -8.0266 O.3       1 <0>        -0.5634
     32 O2         -1.6026   -3.2992   -6.8223 O.3       1 <0>        -0.5483
     33 H1          1.0039    1.9031    0.0027 H         1 <0>         0.0797
     34 H2         -0.5459    1.8868   -0.8726 H         1 <0>         0.0631
     35 H3         -0.5289    1.8773    0.9072 H         1 <0>         0.0655
     36 H4          0.5123   -0.3556   -0.8948 H         1 <0>         0.1066
     37 H5          0.2319   -0.1594    2.1383 H         1 <0>         0.0655
     38 H6          0.7568   -1.6008    1.2356 H         1 <0>         0.0630
     39 H7          1.7647   -0.1336    1.2338 H         1 <0>         0.0797
     40 H8         -2.1580    0.3239    1.8577 H         1 <0>         0.2145
     41 H9         -5.7566   -2.2223   -0.1084 H         1 <0>         0.4200
     42 H10        -6.3581   -2.9762   -2.7629 H         1 <0>         0.0776
     43 H11        -5.8176   -4.4228   -1.8777 H         1 <0>         0.0775
     44 H12        -7.1071   -5.2959   -0.0177 H         1 <0>         0.1266
     45 H13        -9.3295   -5.5048    1.0167 H         1 <0>         0.1278
     46 H14       -10.6367   -2.0346   -1.1294 H         1 <0>         0.1277
     47 H15        -8.4054   -1.8345   -2.1462 H         1 <0>         0.1265
     48 H16       -10.9624   -5.6476    1.7805 H         1 <0>         0.1256
     49 H17       -13.1903   -5.8412    2.8058 H         1 <0>         0.1252
     50 H18       -14.9531   -4.2200    2.2429 H         1 <0>         0.1238
     51 H19       -14.4979   -2.3981    0.6535 H         1 <0>         0.1252
     52 H20       -12.2723   -2.1827   -0.3726 H         1 <0>         0.1255
     53 H21        -0.9864   -2.9665   -4.2858 H         1 <0>         0.4190
     54 H22        -3.1109   -4.8270   -4.2442 H         1 <0>         0.0781
     55 H23        -3.6529   -3.3762   -5.1216 H         1 <0>         0.0719
     56 H24        -1.1623   -5.0191   -5.7657 H         1 <0>         0.1125
     57 H25        -3.3538   -6.1148   -6.3215 H         1 <0>         0.0592
     58 H26        -3.7796   -4.6893   -7.2987 H         1 <0>         0.0532
     59 H27        -2.7466   -6.3942   -8.6147 H         1 <0>         0.3829
     60 H28        -2.3252   -2.7316   -7.1237 H         1 <0>         0.3761
@<TRIPOS>BOND
     1    1    2 1
     2    1   33 1
     3    1   34 1
     4    1   35 1
     5    2    3 1
     6    2    4 1
     7    2   36 1
     8    3   37 1
     9    3   38 1
    10    3   39 1
    11    4    8 1
    12    4    5 1
    13    5    6 2
    14    5   40 1
    15    6    7 1
    16    7   12 ar
    17    7    8 ar
    18    8    9 ar
    19    9   10 ar
    20   10   11 ar
    21   10   27 1
    22   11   12 ar
    23   12   13 1
    24   13   14 1
    25   13   41 1
    26   14   15 1
    27   14   42 1
    28   14   43 1
    29   15   20 ar
    30   15   16 ar
    31   16   17 ar
    32   16   44 1
    33   17   18 ar
    34   17   45 1
    35   18   19 ar
    36   18   21 1
    37   19   20 ar
    38   19   46 1
    39   20   47 1
    40   21   26 ar
    41   21   22 ar
    42   22   23 ar
    43   22   48 1
    44   23   24 ar
    45   23   49 1
    46   24   25 ar
    47   24   50 1
    48   25   26 ar
    49   25   51 1
    50   26   52 1
    51   27   28 1
    52   27   53 1
    53   28   29 1
    54   28   54 1
    55   28   55 1
    56   29   30 1
    57   29   32 1
    58   29   56 1
    59   30   31 1
    60   30   57 1
    61   30   58 1
    62   31   59 1
    63   32   60 1
@<TRIPOS>MOLECULE
CHEMBL1098058
   59    63     0     0     0
SMALL
USER_CHARGES

@<TRIPOS>ATOM
      1 C1          0.0102    1.3332   -0.6532 C.ar      1 <0>        -0.1290
      2 C2          1.0019    1.9259    0.1067 C.ar      1 <0>        -0.0982
      3 C3          2.2003    1.2710    0.3128 C.ar      1 <0>        -0.1472
      4 C4          2.4086    0.0156   -0.2438 C.ar      1 <0>         0.1513
      5 C5          1.4102   -0.5771   -1.0062 C.ar      1 <0>        -0.1118
      6 C6          0.2143    0.0834   -1.2087 C.ar      1 <0>        -0.0974
      7 N1          3.6207   -0.6499   -0.0375 N.pl3     1 <0>        -0.6352
      8 C7          3.6446   -2.0317    0.0595 C.ar      1 <0>         0.5639
      9 N2          2.4999   -2.6999    0.0608 N.ar      1 <0>        -0.5422
     10 C8          2.4711   -4.0197    0.1678 C.ar      1 <0>         0.2068
     11 C9          3.6630   -4.7124    0.2701 C.ar      1 <0>        -0.2077
     12 C10         4.8553   -3.9751    0.2373 C.ar      1 <0>         0.2787
     13 N3          4.8126   -2.6546    0.1432 N.ar      1 <0>        -0.5747
     14 C11         6.1185   -4.7325    0.2600 C.2       1 <0>         0.0380
     15 C12         6.1161   -6.0922    0.0330 C.2       1 <0>        -0.0861
     16 C13         7.4485   -6.4934    0.1364 C.2       1 <0>         0.0126
     17 N4          8.1644   -5.4066    0.3843 N.2       1 <0>        -0.2479
     18 N5          7.4018   -4.3668    0.4464 N.pl3     1 <0>        -0.2574
     19 C14         7.8621   -2.9964    0.6838 C.3       1 <0>         0.1007
     20 C15         7.8716   -2.7149    2.1876 C.3       1 <0>        -0.0251
     21 N6          8.3332   -1.3408    2.4257 N.4       1 <0>        -0.3776
     22 C16         9.7288   -1.2125    1.9893 C.3       1 <0>        -0.0162
     23 C17        10.1893    0.2368    2.1597 C.3       1 <0>        -0.1448
     24 C18        10.0756    0.6326    3.6347 C.3       1 <0>        -0.1398
     25 C19         8.6313    0.4242    4.0991 C.3       1 <0>        -0.1451
     26 C20         8.2285   -1.0320    3.8568 C.3       1 <0>        -0.0060
     27 C21         7.9639   -7.8709   -0.0038 C.2       1 <0>         0.6056
     28 O1          7.1973   -8.7864   -0.2322 O.2       1 <0>        -0.5161
     29 N7          9.2839   -8.1126    0.1215 N.am      1 <0>        -0.8380
     30 C22         4.8624   -6.8598   -0.2697 C.3       1 <0>        -0.0572
     31 C23         3.6735   -6.2044    0.4342 C.3       1 <0>        -0.0684
     32 H1         -0.9276    1.8456   -0.8095 H         1 <0>         0.1267
     33 H2          0.8393    2.9020    0.5392 H         1 <0>         0.1282
     34 H3          2.9747    1.7348    0.9058 H         1 <0>         0.1209
     35 H4          1.5691   -1.5530   -1.4406 H         1 <0>         0.1334
     36 H5         -0.5624   -0.3769   -1.8014 H         1 <0>         0.1282
     37 H6          4.4450   -0.1441    0.0378 H         1 <0>         0.4174
     38 H7          1.5290   -4.5477    0.1754 H         1 <0>         0.1824
     39 H8          8.8698   -2.8775    0.2855 H         1 <0>         0.1246
     40 H9          7.1903   -2.2963    0.1873 H         1 <0>         0.1353
     41 H10         6.8640   -2.8338    2.5859 H         1 <0>         0.1366
     42 H11         8.5435   -3.4150    2.6841 H         1 <0>         0.1415
     43 H12        10.3590   -1.8668    2.5917 H         1 <0>         0.1336
     44 H13         9.8087   -1.4976    0.9403 H         1 <0>         0.1304
     45 H14        11.2263    0.3295    1.8368 H         1 <0>         0.1150
     46 H15         9.5599    0.8919    1.5574 H         1 <0>         0.0890
     47 H16        10.7436    0.0114    4.2313 H         1 <0>         0.0831
     48 H17        10.3487    1.6812    3.7527 H         1 <0>         0.0963
     49 H18         8.5546    0.6509    5.1625 H         1 <0>         0.1146
     50 H19         7.9696    1.0833    3.5371 H         1 <0>         0.0886
     51 H20         7.2008   -1.1839    4.1866 H         1 <0>         0.1301
     52 H21         8.8907   -1.6901    4.4194 H         1 <0>         0.1312
     53 H22         9.8955   -7.3821    0.3037 H         1 <0>         0.4063
     54 H23         9.6222   -9.0170    0.0294 H         1 <0>         0.4135
     55 H24         4.6899   -6.8627   -1.3459 H         1 <0>         0.0903
     56 H25         4.9715   -7.8857    0.0821 H         1 <0>         0.1091
     57 H26         3.7176   -6.4423    1.4970 H         1 <0>         0.0850
     58 H27         2.7506   -6.6114    0.0212 H         1 <0>         0.0958
     59 H28         7.7585   -0.6984    1.9011 H         1 <0>         0.4243
@<TRIPOS>BOND
     1    1    6 ar
     2    1    2 ar
     3    1   32 1
     4    2    3 ar
     5    2   33 1
     6    3    4 ar
     7    3   34 1
     8    4    5 ar
     9    4    7 1
    10    5    6 ar
    11    5   35 1
    12    6   36 1
    13    7    8 1
    14    7   37 1
    15    8   13 ar
    16    8    9 ar
    17    9   10 ar
    18   10   11 ar
    19   10   38 1
    20   11   31 1
    21   11   12 ar
    22   12   13 ar
    23   12   14 1
    24   14   18 1
    25   14   15 2
    26   15   16 1
    27   15   30 1
    28   16   17 2
    29   16   27 1
    30   17   18 1
    31   18   19 1
    32   19   20 1
    33   19   39 1
    34   19   40 1
    35   20   21 1
    36   20   41 1
    37   20   42 1
    38   21   26 1
    39   21   22 1
    40   21   59 1
    41   22   23 1
    42   22   43 1
    43   22   44 1
    44   23   24 1
    45   23   45 1
    46   23   46 1
    47   24   25 1
    48   24   47 1
    49   24   48 1
    50   25   26 1
    51   25   49 1
    52   25   50 1
    53   26   51 1
    54   26   52 1
    55   27   28 2
    56   27   29 am
    57   29   53 1
    58   29   54 1
    59   30   31 1
    60   30   55 1
    61   30   56 1
    62   31   57 1
    63   31   58 1
@<TRIPOS>MOLECULE
CHEMBL482211
   52    54     0     0     0
SMALL
USER_CHARGES

@<TRIPOS>ATOM
      1 C1         -0.0187    1.5258    0.0104 C.3       1 <0>        -0.1538
      2 C2          0.0021   -0.0041    0.0020 C.3       1 <0>        -0.1279
      3 C3          0.7421   -0.5109    1.2415 C.3       1 <0>         0.1692
      4 H1          1.7350   -0.0630    1.2804 H         1 <0>         0.1041
      5 C4          0.8719   -2.0337    1.1708 C.3       1 <0>         0.0623
      6 O1         -0.4227   -2.6149    1.0028 O.3       1 <0>        -0.5690
      7 N1         -0.0083   -0.1401    2.4439 N.pl3     1 <0>        -0.6747
      8 C5          0.6494   -0.0072    3.6591 C.2       1 <0>         0.5934
      9 N2          1.9674   -0.2164    3.7099 N.2       1 <0>        -0.6304
     10 C6          2.6427   -0.1031    4.8389 C.2       1 <0>         0.5652
     11 C7          1.9559    0.2487    6.0277 C.2       1 <0>         0.0585
     12 N3          2.3387    0.4352    7.2798 N.2       1 <0>        -0.4316
     13 C8          1.2766    0.7589    8.0153 C.2       1 <0>         0.0039
     14 C9          0.1847    0.7794    7.2088 C.2       1 <0>         0.0468
     15 N4          0.6033    0.4603    5.9603 N.pl3     1 <0>        -0.2155
     16 N5         -0.0411    0.3260    4.7256 N.2       1 <0>        -0.4209
     17 C10        -1.2285    1.0976    7.6245 C.3       1 <0>        -0.0190
     18 C11        -1.4762    0.5669    9.0379 C.3       1 <0>        -0.1429
     19 C12        -1.4368    2.6132    7.6050 C.3       1 <0>        -0.1411
     20 N6          4.0053   -0.3259    4.8613 N.pl3     1 <0>        -0.6673
     21 C13         4.7083   -0.6897    3.6286 C.3       1 <0>         0.1691
     22 C14         6.1746   -0.8754    3.9227 C.ar      1 <0>        -0.1185
     23 C15         7.0394    0.1992    3.8313 C.ar      1 <0>        -0.0966
     24 C16         8.3844    0.0289    4.1011 C.ar      1 <0>        -0.1214
     25 C17         8.8646   -1.2159    4.4627 C.ar      1 <0>        -0.1070
     26 C18         7.9997   -2.2903    4.5549 C.ar      1 <0>        -0.1216
     27 C19         6.6540   -2.1191    4.2893 C.ar      1 <0>        -0.0969
     28 H2          1.0039    1.9031    0.0027 H         1 <0>         0.0541
     29 H3         -0.5459    1.8868   -0.8726 H         1 <0>         0.0580
     30 H4         -0.5289    1.8773    0.9072 H         1 <0>         0.0548
     31 H5         -1.0205   -0.3814    0.0098 H         1 <0>         0.0782
     32 H6          0.5123   -0.3556   -0.8948 H         1 <0>         0.0797
     33 H7          1.5047   -2.3056    0.3260 H         1 <0>         0.0546
     34 H8          1.3192   -2.4035    2.0935 H         1 <0>         0.0497
     35 H9         -0.4165   -3.5805    0.9499 H         1 <0>         0.3790
     36 H10        -0.9647    0.0126    2.3909 H         1 <0>         0.4177
     37 H11         1.2829    0.9695    9.0745 H         1 <0>         0.1888
     38 H12        -1.9258    0.6261    6.9320 H         1 <0>         0.0856
     39 H13        -0.7789    1.0384    9.7304 H         1 <0>         0.0630
     40 H14        -2.4983    0.7970    9.3386 H         1 <0>         0.0662
     41 H15        -1.3277   -0.5129    9.0518 H         1 <0>         0.0586
     42 H16        -2.4590    2.8434    7.9057 H         1 <0>         0.0649
     43 H17        -0.7395    3.0848    8.2975 H         1 <0>         0.0602
     44 H18        -1.2604    2.9914    6.5980 H         1 <0>         0.0534
     45 H19         4.4969   -0.2415    5.6932 H         1 <0>         0.4250
     46 H20         4.2960   -1.6191    3.2359 H         1 <0>         0.0830
     47 H21         4.5832    0.1034    2.8914 H         1 <0>         0.0840
     48 H22         6.6642    1.1718    3.5488 H         1 <0>         0.1245
     49 H23         9.0602    0.8683    4.0291 H         1 <0>         0.1258
     50 H24         9.9156   -1.3491    4.6728 H         1 <0>         0.1249
     51 H25         8.3750   -3.2629    4.8371 H         1 <0>         0.1256
     52 H26         5.9776   -2.9576    4.3650 H         1 <0>         0.1241
@<TRIPOS>BOND
     1    1    2 1
     2    1   28 1
     3    1   29 1
     4    1   30 1
     5    2    3 1
     6    2   31 1
     7    2   32 1
     8    3    4 1
     9    3    5 1
    10    3    7 1
    11    5    6 1
    12    5   33 1
    13    5   34 1
    14    6   35 1
    15    7    8 1
    16    7   36 1
    17    8   16 2
    18    8    9 1
    19    9   10 2
    20   10   11 1
    21   10   20 1
    22   11   15 1
    23   11   12 2
    24   12   13 1
    25   13   14 2
    26   13   37 1
    27   14   15 1
    28   14   17 1
    29   15   16 1
    30   17   18 1
    31   17   19 1
    32   17   38 1
    33   18   39 1
    34   18   40 1
    35   18   41 1
    36   19   42 1
    37   19   43 1
    38   19   44 1
    39   20   21 1
    40   20   45 1
    41   21   22 1
    42   21   46 1
    43   21   47 1
    44   22   27 ar
    45   22   23 ar
    46   23   24 ar
    47   23   48 1
    48   24   25 ar
    49   24   49 1
    50   25   26 ar
    51   25   50 1
    52   26   27 ar
    53   26   51 1
    54   27   52 1
@<TRIPOS>MOLECULE
CHEMBL482211
   53    55     0     0     0
SMALL
USER_CHARGES

@<TRIPOS>ATOM
      1 C1         -0.0187    1.5258    0.0104 C.3       1 <0>        -0.1597
      2 C2          0.0021   -0.0041    0.0020 C.3       1 <0>        -0.1329
      3 C3          0.7421   -0.5109    1.2415 C.3       1 <0>         0.1544
      4 H1          1.7350   -0.0630    1.2804 H         1 <0>         0.1241
      5 C4          0.8719   -2.0337    1.1708 C.3       1 <0>         0.0592
      6 O1         -0.4227   -2.6149    1.0028 O.3       1 <0>        -0.5725
      7 N1         -0.0083   -0.1401    2.4439 N.pl3     1 <0>        -0.6435
      8 C5          0.6494   -0.0072    3.6591 C.cat     1 <0>         0.7118
      9 N2          1.9674   -0.2164    3.7099 N.2       1 <0>        -0.5993
     10 C6          2.6427   -0.1031    4.8389 C.2       1 <0>         0.5928
     11 C7          1.9559    0.2487    6.0277 C.2       1 <0>         0.0986
     12 N3          2.3387    0.4352    7.2798 N.2       1 <0>        -0.3709
     13 C8          1.2766    0.7589    8.0153 C.2       1 <0>         0.0359
     14 C9          0.1847    0.7794    7.2088 C.2       1 <0>         0.0713
     15 N4          0.6033    0.4603    5.9603 N.pl3     1 <0>        -0.2332
     16 N5         -0.0411    0.3260    4.7256 N.pl3     1 <0>        -0.4774
     17 C10        -1.2285    1.0976    7.6245 C.3       1 <0>        -0.0320
     18 C11        -1.4762    0.5669    9.0379 C.3       1 <0>        -0.1499
     19 C12        -1.4368    2.6132    7.6050 C.3       1 <0>        -0.1514
     20 N6          4.0053   -0.3259    4.8613 N.pl3     1 <0>        -0.6092
     21 C13         4.7083   -0.6897    3.6286 C.3       1 <0>         0.1519
     22 C14         6.1746   -0.8754    3.9227 C.ar      1 <0>        -0.1395
     23 C15         7.0394    0.1992    3.8313 C.ar      1 <0>        -0.0930
     24 C16         8.3844    0.0289    4.1011 C.ar      1 <0>        -0.1186
     25 C17         8.8646   -1.2159    4.4627 C.ar      1 <0>        -0.0941
     26 C18         7.9997   -2.2903    4.5549 C.ar      1 <0>        -0.1187
     27 C19         6.6540   -2.1191    4.2893 C.ar      1 <0>        -0.0933
     28 H2          1.0039    1.9031    0.0027 H         1 <0>         0.0606
     29 H3         -0.5459    1.8868   -0.8726 H         1 <0>         0.0698
     30 H4         -0.5289    1.8773    0.9072 H         1 <0>         0.0486
     31 H5         -1.0205   -0.3814    0.0098 H         1 <0>         0.0864
     32 H6          0.5123   -0.3556   -0.8948 H         1 <0>         0.0978
     33 H7          1.5047   -2.3056    0.3260 H         1 <0>         0.0743
     34 H8          1.3192   -2.4035    2.0935 H         1 <0>         0.0543
     35 H9         -0.4165   -3.5805    0.9499 H         1 <0>         0.3919
     36 H10        -0.9647    0.0126    2.3909 H         1 <0>         0.4301
     37 H11         1.2829    0.9695    9.0745 H         1 <0>         0.2168
     38 H12        -1.9258    0.6261    6.9320 H         1 <0>         0.0851
     39 H13        -0.7789    1.0384    9.7304 H         1 <0>         0.0735
     40 H14        -2.4983    0.7970    9.3386 H         1 <0>         0.0811
     41 H15        -1.3277   -0.5129    9.0518 H         1 <0>         0.0666
     42 H16        -1.2604    2.9914    6.5980 H         1 <0>         0.0536
     43 H17        -2.4590    2.8434    7.9057 H         1 <0>         0.0820
     44 H18        -0.7395    3.0848    8.2975 H         1 <0>         0.0740
     45 H19         4.4969   -0.2415    5.6932 H         1 <0>         0.4396
     46 H20         4.2960   -1.6191    3.2359 H         1 <0>         0.1025
     47 H21         4.5832    0.1034    2.8914 H         1 <0>         0.1035
     48 H22         6.6642    1.1718    3.5488 H         1 <0>         0.1262
     49 H23         9.0602    0.8683    4.0291 H         1 <0>         0.1309
     50 H24         9.9156   -1.3491    4.6728 H         1 <0>         0.1309
     51 H25         8.3750   -3.2629    4.8371 H         1 <0>         0.1308
     52 H26         5.9776   -2.9576    4.3650 H         1 <0>         0.1257
     53 H27        -0.9971    0.4753    4.6581 H         1 <0>         0.4527
@<TRIPOS>BOND
     1    1    2 1
     2    1   28 1
     3    1   29 1
     4    1   30 1
     5    2    3 1
     6    2   31 1
     7    2   32 1
     8    3    4 1
     9    3    5 1
    10    3    7 1
    11    5    6 1
    12    5   33 1
    13    5   34 1
    14    6   35 1
    15    7    8 1
    16    7   36 1
    17    8   16 2
    18    8    9 1
    19    9   10 2
    20   10   11 1
    21   10   20 1
    22   11   15 1
    23   11   12 2
    24   12   13 1
    25   13   14 2
    26   13   37 1
    27   14   15 1
    28   14   17 1
    29   15   16 1
    30   16   53 1
    31   17   18 1
    32   17   19 1
    33   17   38 1
    34   18   39 1
    35   18   40 1
    36   18   41 1
    37   19   42 1
    38   19   43 1
    39   19   44 1
    40   20   21 1
    41   20   45 1
    42   21   22 1
    43   21   46 1
    44   21   47 1
    45   22   27 ar
    46   22   23 ar
    47   23   24 ar
    48   23   48 1
    49   24   25 ar
    50   24   49 1
    51   25   26 ar
    52   25   50 1
    53   26   27 ar
    54   26   51 1
    55   27   52 1
@<TRIPOS>MOLECULE
CHEMBL1098057
   56    60     0     0     0
SMALL
USER_CHARGES

@<TRIPOS>ATOM
      1 C1          1.1357    1.5137    1.1153 C.3       1 <0>        -0.0475
      2 N1          1.0144    0.0604    0.9385 N.4       1 <0>        -0.3877
      3 C2         -0.3859   -0.2823    0.6626 C.3       1 <0>        -0.0009
      4 C3         -0.5047   -1.7846    0.3975 C.3       1 <0>        -0.1570
      5 C4         -0.0224   -2.5546    1.6303 C.3       1 <0>         0.1389
      6 C5          1.4143   -2.1340    1.9530 C.3       1 <0>        -0.1592
      7 C6          1.4619   -0.6187    2.1604 C.3       1 <0>        -0.0009
      8 N2         -0.0618   -3.9931    1.3558 N.pl3     1 <0>        -0.2502
      9 C7         -0.7929   -4.8931    2.0409 C.2       1 <0>         0.0424
     10 C8         -0.5692   -6.1221    1.4570 C.2       1 <0>        -0.0926
     11 C9          0.3383   -5.8882    0.4236 C.2       1 <0>         0.0067
     12 N3          0.5948   -4.5885    0.4172 N.2       1 <0>        -0.2551
     13 C10         0.9031   -6.8990   -0.4941 C.2       1 <0>         0.6062
     14 O1          0.5814   -8.0663   -0.3851 O.2       1 <0>        -0.5173
     15 N4          1.7751   -6.5270   -1.4521 N.am      1 <0>        -0.8398
     16 C11        -1.2481   -7.3749    1.9282 C.3       1 <0>        -0.0555
     17 C12        -1.5072   -7.2878    3.4324 C.3       1 <0>        -0.0680
     18 C13        -2.0767   -5.9609    3.8422 C.ar      1 <0>        -0.2095
     19 C14        -1.7149   -4.7766    3.1836 C.ar      1 <0>         0.2807
     20 N5         -2.2054   -3.6169    3.5939 N.ar      1 <0>        -0.5704
     21 C15        -3.0552   -3.5770    4.6118 C.ar      1 <0>         0.5651
     22 N6         -3.4364   -4.6793    5.2409 N.ar      1 <0>        -0.5437
     23 C16        -2.9737   -5.8698    4.8897 C.ar      1 <0>         0.2054
     24 N7         -3.5557   -2.3538    5.0273 N.pl3     1 <0>        -0.6380
     25 C17        -4.3595   -2.2787    6.1688 C.ar      1 <0>         0.1526
     26 C18        -4.0633   -3.0560    7.2811 C.ar      1 <0>        -0.1083
     27 C19        -4.8591   -2.9791    8.4072 C.ar      1 <0>        -0.0993
     28 C20        -5.9501   -2.1297    8.4280 C.ar      1 <0>        -0.1276
     29 C21        -6.2481   -1.3548    7.3221 C.ar      1 <0>        -0.0989
     30 C22        -5.4528   -1.4223    6.1950 C.ar      1 <0>        -0.1432
     31 H1          2.1764    1.7700    1.3137 H         1 <0>         0.1266
     32 H2          0.8036    2.0190    0.2084 H         1 <0>         0.1268
     33 H3          0.5170    1.8304    1.9550 H         1 <0>         0.1236
     34 H4         -1.0009   -0.0157    1.5222 H         1 <0>         0.1346
     35 H5         -0.7286    0.2689   -0.2131 H         1 <0>         0.1420
     36 H6         -1.5454   -2.0373    0.1947 H         1 <0>         0.1208
     37 H7          0.1098   -2.0523   -0.4621 H         1 <0>         0.1055
     38 H8         -0.6682   -2.3264    2.4783 H         1 <0>         0.1423
     39 H9          1.7452   -2.6363    2.8620 H         1 <0>         0.1193
     40 H10         2.0685   -2.4088    1.1257 H         1 <0>         0.1066
     41 H11         2.4834   -0.3158    2.3906 H         1 <0>         0.1420
     42 H12         0.8075   -0.3449    2.9881 H         1 <0>         0.1341
     43 H13         2.0318   -5.5956   -1.5391 H         1 <0>         0.4047
     44 H14         2.1460   -7.1906   -2.0546 H         1 <0>         0.4123
     45 H15        -2.1960   -7.4929    1.4033 H         1 <0>         0.0878
     46 H16        -0.6098   -8.2335    1.7195 H         1 <0>         0.1072
     47 H17        -2.2067   -8.0743    3.7158 H         1 <0>         0.0944
     48 H18        -0.5678   -7.4468    3.9618 H         1 <0>         0.0845
     49 H19        -3.2930   -6.7576    5.4153 H         1 <0>         0.1811
     50 H20        -3.3484   -1.5495    4.5263 H         1 <0>         0.4181
     51 H21        -3.2117   -3.7201    7.2653 H         1 <0>         0.1257
     52 H22        -4.6293   -3.5832    9.2724 H         1 <0>         0.1276
     53 H23        -6.5711   -2.0717    9.3097 H         1 <0>         0.1266
     54 H24        -7.1012   -0.6927    7.3414 H         1 <0>         0.1284
     55 H25        -5.6833   -0.8133    5.3334 H         1 <0>         0.1227
     56 H26         1.5893   -0.2321    0.1626 H         1 <0>         0.4276
@<TRIPOS>BOND
     1    1    2 1
     2    1   31 1
     3    1   32 1
     4    1   33 1
     5    2    7 1
     6    2    3 1
     7    2   56 1
     8    3    4 1
     9    3   34 1
    10    3   35 1
    11    4    5 1
    12    4   36 1
    13    4   37 1
    14    5    6 1
    15    5    8 1
    16    5   38 1
    17    6    7 1
    18    6   39 1
    19    6   40 1
    20    7   41 1
    21    7   42 1
    22    8   12 1
    23    8    9 1
    24    9   19 1
    25    9   10 2
    26   10   11 1
    27   10   16 1
    28   11   12 2
    29   11   13 1
    30   13   14 2
    31   13   15 am
    32   15   43 1
    33   15   44 1
    34   16   17 1
    35   16   45 1
    36   16   46 1
    37   17   18 1
    38   17   47 1
    39   17   48 1
    40   18   23 ar
    41   18   19 ar
    42   19   20 ar
    43   20   21 ar
    44   21   22 ar
    45   21   24 1
    46   22   23 ar
    47   23   49 1
    48   24   25 1
    49   24   50 1
    50   25   30 ar
    51   25   26 ar
    52   26   27 ar
    53   26   51 1
    54   27   28 ar
    55   27   52 1
    56   28   29 ar
    57   28   53 1
    58   29   30 ar
    59   29   54 1
    60   30   55 1
@<TRIPOS>MOLECULE
CHEMBL556214
   25    27     0     0     0
SMALL
USER_CHARGES

@<TRIPOS>ATOM
      1 C1         -0.0184    1.5028    0.0103 C.3       1 <0>        -0.0712
      2 C2          0.0021   -0.0041    0.0020 C.2       1 <0>         0.2476
      3 N1          0.0081   -0.7642   -1.0569 N.2       1 <0>        -0.2578
      4 N2          0.0263   -2.0042   -0.7097 N.2       1 <0>        -0.2190
      5 C3          0.0328   -2.0887    0.5860 C.2       1 <0>         0.1028
      6 N3          0.0237   -0.8208    1.1140 N.pl3     1 <0>        -0.3533
      7 N4          0.0356   -0.7275    2.4993 N.2       1 <0>        -0.2552
      8 C4          0.0571   -1.7883    3.2498 C.2       1 <0>         0.1379
      9 S1          0.0525   -3.1043    2.0420 S.3       1 <0>         0.1504
     10 C5          0.0726   -1.8837    4.7537 C.3       1 <0>         0.0020
     11 C6          0.0592   -0.4765    5.3541 C.3       1 <0>        -0.1322
     12 C7         -0.0495   -0.5202    6.8742 C.2       1 <0>         0.5466
     13 N5          0.9921    0.0002    7.4721 N.2       1 <0>        -0.6914
     14 C8          2.0320    0.5116    6.8394 C.2       1 <0>         0.4785
     15 S2          1.7023    0.3371    5.1981 S.3       1 <0>        -0.0629
     16 N6          3.1440    1.0674    7.4003 N.pl3     1 <0>        -0.7565
     17 O1         -1.0015   -0.9887    7.4675 O.2       1 <0>        -0.4496
     18 H1          1.0042    1.8801    0.0026 H         1 <0>         0.0951
     19 H2         -0.5455    1.8639   -0.8728 H         1 <0>         0.1037
     20 H3         -0.5286    1.8543    0.9071 H         1 <0>         0.0877
     21 H4         -0.8068   -2.4315    5.0921 H         1 <0>         0.1474
     22 H5          0.9729   -2.4073    5.0752 H         1 <0>         0.1308
     23 H6          3.2280    1.1157    8.3654 H         1 <0>         0.4263
     24 H7          3.8510    1.4145    6.8340 H         1 <0>         0.4304
     25 H8         -0.7312    0.1326    4.9155 H         1 <0>         0.1622
@<TRIPOS>BOND
     1    1    2 1
     2    1   18 1
     3    1   19 1
     4    1   20 1
     5    2    6 1
     6    2    3 2
     7    3    4 1
     8    4    5 2
     9    5    9 1
    10    5    6 1
    11    6    7 1
    12    7    8 2
    13    8    9 1
    14    8   10 1
    15   10   21 1
    16   10   22 1
    17   10   11 1
    18   11   12 1
    19   11   25 1
    20   11   15 1
    21   12   13 1
    22   12   17 2
    23   13   14 2
    24   14   15 1
    25   14   16 1
    26   16   23 1
    27   16   24 1
@<TRIPOS>MOLECULE
CHEMBL254979
   50    54     0     0     0
SMALL
USER_CHARGES

@<TRIPOS>ATOM
      1 C1         -0.0164    1.3567    0.0095 C.ar      1 <0>        -0.1157
      2 C2          1.1686    2.0905    0.0021 C.ar      1 <0>        -0.1172
      3 C3          2.3785    1.4675   -0.0131 C.ar      1 <0>        -0.1051
      4 C4          2.4375    0.0634   -0.0211 C.ar      1 <0>        -0.0499
      5 C5          3.6681   -0.6153   -0.0364 C.ar      1 <0>        -0.0874
      6 C6          3.6865   -1.9761   -0.0434 C.ar      1 <0>        -0.0690
      7 C7          2.5015   -2.7098   -0.0357 C.ar      1 <0>        -0.1002
      8 C8          1.2917   -2.0868   -0.0209 C.ar      1 <0>        -0.1038
      9 C9          1.2327   -0.6827   -0.0133 C.ar      1 <0>        -0.0491
     10 C10         0.0021   -0.0041    0.0020 C.ar      1 <0>        -0.1072
     11 C11         5.0079   -2.7004   -0.0602 C.3       1 <0>        -0.0967
     12 C12         5.4625   -2.9490    1.3549 C.2       1 <0>         0.5051
     13 O1          4.7806   -2.5748    2.2856 O.2       1 <0>        -0.4730
     14 N1          6.6269   -3.5871    1.5864 N.am      1 <0>        -0.6370
     15 C13         7.0492   -3.8180    2.9007 C.2       1 <0>         0.3110
     16 C14         8.2855   -4.4888    3.3053 C.ar      1 <0>        -0.1501
     17 C15         9.3500   -5.0653    2.6049 C.ar      1 <0>        -0.0800
     18 C16        10.3956   -5.6336    3.3052 C.ar      1 <0>         0.1765
     19 C17        10.3912   -5.6333    4.7005 C.ar      1 <0>        -0.1076
     20 C18         9.3577   -5.0737    5.3948 C.ar      1 <0>        -0.0986
     21 C19         8.2908   -4.4938    4.7124 C.ar      1 <0>         0.1238
     22 N2          7.1367   -3.8687    5.1153 N.pl3     1 <0>        -0.5013
     23 H1          6.8678   -3.7238    6.0360 H         1 <0>         0.4454
     24 N3          6.4134   -3.4685    3.9872 N.2       1 <0>        -0.2255
     25 N4         11.4647   -6.2131    2.6122 N.pl3     1 <0>        -0.9294
     26 C20        11.4441   -6.7594    1.2432 C.3       1 <0>         0.0633
     27 C21        12.8290   -6.6321    0.5817 C.3       1 <0>        -0.1309
     28 C22        13.8404   -7.1135    1.6653 C.3       1 <0>        -0.5886
     29 S1         13.0331   -6.4218    3.1660 S.o2      1 <0>         2.5542
     30 O2         12.9470   -7.4056    4.1877 O.2       1 <0>        -0.9443
     31 O3         13.5154   -5.1138    3.4414 O.2       1 <0>        -0.9416
     32 H2         -0.9633    1.8757    0.0259 H         1 <0>         0.1233
     33 H3          1.1260    3.1696    0.0083 H         1 <0>         0.1233
     34 H4          3.2884    2.0491   -0.0194 H         1 <0>         0.1265
     35 H5          4.5943   -0.0599   -0.0428 H         1 <0>         0.1254
     36 H6          2.5441   -3.7890   -0.0419 H         1 <0>         0.1218
     37 H7          0.3816   -2.6684   -0.0154 H         1 <0>         0.1282
     38 H8         -0.9241   -0.5595    0.0082 H         1 <0>         0.1270
     39 H9          4.8935   -3.6529   -0.5777 H         1 <0>         0.1102
     40 H10         5.7491   -2.0921   -0.5784 H         1 <0>         0.1097
     41 H11         7.1722   -3.8864    0.8421 H         1 <0>         0.4212
     42 H12         9.3541   -5.0663    1.5249 H         1 <0>         0.1317
     43 H13        11.2145   -6.0812    5.2372 H         1 <0>         0.1362
     44 H14         9.3673   -5.0805    6.4747 H         1 <0>         0.1400
     45 H15        11.1598   -7.8110    1.2808 H         1 <0>         0.0890
     46 H16        10.7115   -6.2124    0.6498 H         1 <0>         0.1017
     47 H17        12.8873   -7.2697   -0.3005 H         1 <0>         0.1197
     48 H18        13.0267   -5.5943    0.3136 H         1 <0>         0.0992
     49 H19        13.8931   -8.2015    1.7039 H         1 <0>         0.1478
     50 H20        14.8266   -6.6759    1.5104 H         1 <0>         0.1480
@<TRIPOS>BOND
     1    1   10 ar
     2    1    2 ar
     3    1   32 1
     4    2    3 ar
     5    2   33 1
     6    3    4 ar
     7    3   34 1
     8    4    9 ar
     9    4    5 ar
    10    5    6 ar
    11    5   35 1
    12    6    7 ar
    13    6   11 1
    14    7    8 ar
    15    7   36 1
    16    8    9 ar
    17    8   37 1
    18    9   10 ar
    19   10   38 1
    20   11   12 1
    21   11   39 1
    22   11   40 1
    23   12   13 2
    24   12   14 am
    25   14   15 1
    26   14   41 1
    27   15   24 2
    28   15   16 1
    29   16   21 ar
    30   16   17 ar
    31   17   18 ar
    32   17   42 1
    33   18   19 ar
    34   18   25 1
    35   19   20 ar
    36   19   43 1
    37   20   21 ar
    38   20   44 1
    39   21   22 1
    40   22   23 1
    41   22   24 1
    42   25   29 1
    43   25   26 1
    44   26   27 1
    45   26   45 1
    46   26   46 1
    47   27   28 1
    48   27   47 1
    49   27   48 1
    50   28   29 1
    51   28   49 1
    52   28   50 1
    53   29   30 2
    54   29   31 2
@<TRIPOS>MOLECULE
CHEMBL402759
   54    58     0     0     0
SMALL
USER_CHARGES

@<TRIPOS>ATOM
      1 C1         -0.0167    1.3790    0.0096 C.ar      1 <0>        -0.1190
      2 C2          1.1687    2.0919    0.0021 C.ar      1 <0>        -0.1176
      3 C3          2.3774    1.4258   -0.0129 C.ar      1 <0>        -0.1108
      4 C4          2.4022    0.0327   -0.0206 C.ar      1 <0>        -0.0464
      5 C5          1.2051   -0.6804   -0.0130 C.ar      1 <0>        -0.1109
      6 C6          0.0021   -0.0041    0.0020 C.ar      1 <0>        -0.1176
      7 C7          3.6987   -0.6889   -0.0373 C.ar      1 <0>        -0.0417
      8 C8          4.8958    0.0241   -0.0395 C.ar      1 <0>        -0.1083
      9 C9          6.0988   -0.6522   -0.0546 C.ar      1 <0>        -0.0989
     10 C10         6.1176   -2.0352   -0.0680 C.ar      1 <0>        -0.0717
     11 C11         4.9322   -2.7481   -0.0663 C.ar      1 <0>        -0.0990
     12 C12         3.7235   -2.0821   -0.0450 C.ar      1 <0>        -0.1084
     13 C13         7.4343   -2.7680   -0.0849 C.3       1 <0>        -0.0958
     14 C14         7.8839   -3.0259    1.3302 C.2       1 <0>         0.5052
     15 O1          7.2022   -2.6514    2.2609 O.2       1 <0>        -0.4732
     16 N1          9.0435   -3.6726    1.5616 N.am      1 <0>        -0.6371
     17 C15         9.4611   -3.9121    2.8759 C.2       1 <0>         0.3110
     18 C16        10.6920   -4.5927    3.2803 C.ar      1 <0>        -0.1500
     19 C17        11.7545   -5.1730    2.5800 C.ar      1 <0>        -0.0799
     20 C18        12.7947   -5.7513    3.2802 C.ar      1 <0>         0.1765
     21 C19        12.7869   -5.7572    4.6755 C.ar      1 <0>        -0.1076
     22 C20        11.7554   -5.1939    5.3698 C.ar      1 <0>        -0.0986
     23 C21        10.6940   -4.6040    4.6874 C.ar      1 <0>         0.1238
     24 N2          9.5429   -3.9733    5.0904 N.pl3     1 <0>        -0.5013
     25 H1          9.2728   -3.8307    6.0111 H         1 <0>         0.4454
     26 N3          8.8250   -3.5633    3.9624 N.2       1 <0>        -0.2255
     27 N4         13.8617   -6.3346    2.5871 N.pl3     1 <0>        -0.9294
     28 C22        13.8408   -6.8746    1.2156 C.3       1 <0>         0.0633
     29 C23        15.2281   -6.7534    0.5580 C.3       1 <0>        -0.1309
     30 C24        16.2337   -7.2462    1.6418 C.3       1 <0>        -0.5886
     31 S1         15.4273   -6.5560    3.1437 S.o2      1 <0>         2.5541
     32 O2         15.9175   -5.2524    3.4261 O.2       1 <0>        -0.9415
     33 O3         15.3324   -7.5438    4.1608 O.2       1 <0>        -0.9443
     34 H2         -0.9603    1.9042    0.0260 H         1 <0>         0.1231
     35 H3          1.1483    3.1717    0.0077 H         1 <0>         0.1246
     36 H4          3.3023    1.9834   -0.0191 H         1 <0>         0.1252
     37 H5          1.2186   -1.7603   -0.0193 H         1 <0>         0.1252
     38 H6         -0.9264   -0.5558    0.0082 H         1 <0>         0.1245
     39 H7          4.8823    1.1040   -0.0299 H         1 <0>         0.1262
     40 H8          7.0273   -0.1005   -0.0564 H         1 <0>         0.1232
     41 H9          4.9525   -3.8278   -0.0771 H         1 <0>         0.1231
     42 H10         2.7986   -2.6396   -0.0392 H         1 <0>         0.1261
     43 H11         7.3150   -3.7174   -0.6069 H         1 <0>         0.1096
     44 H12         8.1807   -2.1622   -0.5986 H         1 <0>         0.1097
     45 H13         9.5887   -3.9721    0.8172 H         1 <0>         0.4212
     46 H14        11.7612   -5.1692    1.5000 H         1 <0>         0.1316
     47 H15        13.6060   -6.2128    5.2121 H         1 <0>         0.1362
     48 H16        11.7623   -5.2056    6.4497 H         1 <0>         0.1400
     49 H17        13.5496   -7.9245    1.2479 H         1 <0>         0.0890
     50 H18        13.1132   -6.3202    0.6229 H         1 <0>         0.1018
     51 H19        15.2843   -7.3874   -0.3269 H         1 <0>         0.1197
     52 H20        15.4332   -5.7157    0.2950 H         1 <0>         0.0993
     53 H21        16.2793   -8.3347    1.6757 H         1 <0>         0.1478
     54 H22        17.2231   -6.8143    1.4913 H         1 <0>         0.1480
@<TRIPOS>BOND
     1    1    6 ar
     2    1    2 ar
     3    1   34 1
     4    2    3 ar
     5    2   35 1
     6    3    4 ar
     7    3   36 1
     8    4    5 ar
     9    4    7 1
    10    5    6 ar
    11    5   37 1
    12    6   38 1
    13    7   12 ar
    14    7    8 ar
    15    8    9 ar
    16    8   39 1
    17    9   10 ar
    18    9   40 1
    19   10   11 ar
    20   10   13 1
    21   11   12 ar
    22   11   41 1
    23   12   42 1
    24   13   14 1
    25   13   43 1
    26   13   44 1
    27   14   15 2
    28   14   16 am
    29   16   17 1
    30   16   45 1
    31   17   26 2
    32   17   18 1
    33   18   23 ar
    34   18   19 ar
    35   19   20 ar
    36   19   46 1
    37   20   21 ar
    38   20   27 1
    39   21   22 ar
    40   21   47 1
    41   22   23 ar
    42   22   48 1
    43   23   24 1
    44   24   25 1
    45   24   26 1
    46   27   31 1
    47   27   28 1
    48   28   29 1
    49   28   49 1
    50   28   50 1
    51   29   30 1
    52   29   51 1
    53   29   52 1
    54   30   31 1
    55   30   53 1
    56   30   54 1
    57   31   32 2
    58   31   33 2
@<TRIPOS>MOLECULE
CHEMBL254171
   53    57     0     0     0
SMALL
USER_CHARGES

@<TRIPOS>ATOM
      1 C1         -0.0167    1.3790    0.0096 C.ar      1 <0>        -0.1007
      2 C2          1.1675    2.0878    0.0021 C.ar      1 <0>        -0.0990
      3 C3          2.3836    1.4075   -0.0131 C.ar      1 <0>        -0.0538
      4 C4          2.3965    0.0141   -0.0207 C.ar      1 <0>        -0.0991
      5 C5          1.2063   -0.6845   -0.0130 C.ar      1 <0>        -0.1008
      6 C6          0.0021   -0.0041    0.0020 C.ar      1 <0>        -0.0630
      7 C7         -1.2943   -0.7725    0.0102 C.3       1 <0>        -0.0977
      8 C8         -1.7399   -1.0210   -1.4078 C.2       1 <0>         0.5056
      9 O1         -1.0706   -0.6141   -2.3340 O.2       1 <0>        -0.4737
     10 N1         -2.8821   -1.6953   -1.6468 N.am      1 <0>        -0.6365
     11 C9         -3.2960   -1.9261   -2.9639 C.2       1 <0>         0.3105
     12 C10        -4.5090   -2.6336   -3.3764 C.ar      1 <0>        -0.1500
     13 C11        -5.5538   -3.2530   -2.6830 C.ar      1 <0>        -0.0802
     14 C12        -6.5795   -3.8485   -3.3900 C.ar      1 <0>         0.1769
     15 C13        -6.5747   -3.8331   -4.7852 C.ar      1 <0>        -0.1074
     16 C14        -5.5604   -3.2317   -5.4728 C.ar      1 <0>        -0.0984
     17 C15        -4.5137   -2.6237   -4.7834 C.ar      1 <0>         0.1238
     18 N2         -3.3811   -1.9560   -5.1789 N.pl3     1 <0>        -0.5011
     19 H1         -3.1170   -1.7923   -6.0978 H         1 <0>         0.4455
     20 N3         -2.6720   -1.5438   -4.0461 N.2       1 <0>        -0.2254
     21 N4         -7.6288   -4.4710   -2.7039 N.pl3     1 <0>        -0.9295
     22 C16        -7.5903   -5.0309   -1.3408 C.3       1 <0>         0.0634
     23 C17        -8.9789   -4.9573   -0.6789 C.3       1 <0>        -0.1309
     24 C18        -9.9732   -5.4606   -1.7683 C.3       1 <0>        -0.5886
     25 S1         -9.1891   -4.7262   -3.2609 S.o2      1 <0>         2.5541
     26 O2         -9.7150   -3.4323   -3.5227 O.2       1 <0>        -0.9415
     27 O3         -9.0698   -5.6956   -4.2931 O.2       1 <0>        -0.9442
     28 C19         3.6599    2.1640   -0.0217 C.ar      1 <0>         0.0024
     29 C20         3.6661    3.5616   -0.0090 C.ar      1 <0>        -0.1675
     30 C21         4.8755    4.2258   -0.0176 C.ar      1 <0>         0.1035
     31 N5          6.0138    3.5593   -0.0377 N.ar      1 <0>        -0.4883
     32 C22         6.0519    2.2407   -0.0503 C.ar      1 <0>         0.1035
     33 C23         4.8888    1.4985   -0.0370 C.ar      1 <0>        -0.1675
     34 H2         -0.9597    1.9052    0.0260 H         1 <0>         0.1258
     35 H3          1.1517    3.1677    0.0077 H         1 <0>         0.1280
     36 H4          3.3362   -0.5181   -0.0328 H         1 <0>         0.1280
     37 H5          1.2151   -1.7644   -0.0192 H         1 <0>         0.1257
     38 H6         -1.1482   -1.7261    0.5176 H         1 <0>         0.1109
     39 H7         -2.0557   -0.1949    0.5344 H         1 <0>         0.1110
     40 H8         -3.4173   -2.0206   -0.9062 H         1 <0>         0.4214
     41 H9         -5.5582   -3.2657   -1.6030 H         1 <0>         0.1317
     42 H10        -7.3823   -4.3026   -5.3272 H         1 <0>         0.1363
     43 H11        -5.5694   -3.2273   -6.5527 H         1 <0>         0.1402
     44 H12        -7.2709   -6.0719   -1.3895 H         1 <0>         0.0890
     45 H13        -6.8766   -4.4660   -0.7411 H         1 <0>         0.1017
     46 H14        -9.0160   -5.6058    0.1964 H         1 <0>         0.1198
     47 H15        -9.2114   -3.9295   -0.3998 H         1 <0>         0.0993
     48 H16        -9.9894   -6.5494   -1.8186 H         1 <0>         0.1479
     49 H17       -10.9736   -5.0580   -1.6094 H         1 <0>         0.1481
     50 H18         2.7379    4.1136    0.0071 H         1 <0>         0.1374
     51 H19         4.8904    5.3056   -0.0083 H         1 <0>         0.1582
     52 H20         7.0063    1.7354   -0.0666 H         1 <0>         0.1581
     53 H21         4.9274    0.4192   -0.0427 H         1 <0>         0.1374
@<TRIPOS>BOND
     1    1    6 ar
     2    1    2 ar
     3    1   34 1
     4    2    3 ar
     5    2   35 1
     6    3    4 ar
     7    3   28 1
     8    4    5 ar
     9    4   36 1
    10    5    6 ar
    11    5   37 1
    12    6    7 1
    13    7    8 1
    14    7   38 1
    15    7   39 1
    16    8    9 2
    17    8   10 am
    18   10   11 1
    19   10   40 1
    20   11   20 2
    21   11   12 1
    22   12   17 ar
    23   12   13 ar
    24   13   14 ar
    25   13   41 1
    26   14   15 ar
    27   14   21 1
    28   15   16 ar
    29   15   42 1
    30   16   17 ar
    31   16   43 1
    32   17   18 1
    33   18   19 1
    34   18   20 1
    35   21   25 1
    36   21   22 1
    37   22   23 1
    38   22   44 1
    39   22   45 1
    40   23   24 1
    41   23   46 1
    42   23   47 1
    43   24   25 1
    44   24   48 1
    45   24   49 1
    46   25   26 2
    47   25   27 2
    48   28   33 ar
    49   28   29 ar
    50   29   30 ar
    51   29   50 1
    52   30   31 ar
    53   30   51 1
    54   31   32 ar
    55   32   33 ar
    56   32   52 1
    57   33   53 1
@<TRIPOS>MOLECULE
CHEMBL187903
   44    47     0     0     0
SMALL
USER_CHARGES

@<TRIPOS>ATOM
      1 C1         -0.0184    1.5028    0.0103 C.3       1 <0>        -0.1128
      2 C2          0.0021   -0.0041    0.0020 C.ar      1 <0>        -0.0930
      3 C3          0.0056   -0.6738   -1.1890 C.ar      1 <0>        -0.0603
      4 C4          0.0250   -2.0706   -1.2020 C.ar      1 <0>         0.0472
      5 C5          0.0407   -2.7733    0.0150 C.ar      1 <0>         0.0587
      6 C6          0.0368   -2.0760    1.2150 C.ar      1 <0>        -0.1094
      7 C7          0.0229   -0.6971    1.2037 C.ar      1 <0>        -0.0632
      8 C8          0.0244    0.0621    2.5055 C.3       1 <0>        -0.1143
      9 N1          0.0577   -4.1128   -0.3187 N.pl3     1 <0>        -0.4840
     10 C9          0.0522   -4.1916   -1.6768 C.2       1 <0>         0.2688
     11 N2          0.0331   -2.9979   -2.1940 N.2       1 <0>        -0.4879
     12 C10         0.0784   -5.2404    0.6164 C.3       1 <0>         0.1029
     13 C11        -1.3304   -5.5678    1.0397 C.2       1 <0>         0.4839
     14 O1         -2.2601   -4.9228    0.6033 O.2       1 <0>        -0.4437
     15 N3         -1.5571   -6.5774    1.9033 N.am      1 <0>        -0.6211
     16 C12        -2.8565   -6.8794    2.2938 C.2       1 <0>         0.2594
     17 N4         -3.9772   -6.2985    1.9236 N.2       1 <0>        -0.5147
     18 C13        -5.1432   -6.7064    2.3891 C.2       1 <0>         0.0588
     19 C14        -5.1297   -7.7450    3.2603 C.2       1 <0>        -0.1904
     20 S1         -3.3786   -8.0818    3.3493 S.3       1 <0>         0.1181
     21 C15        -6.2769   -8.4299    3.9574 C.3       1 <0>        -0.0221
     22 C16        -5.9572   -8.8511    5.4015 C.3       1 <0>        -0.1347
     23 C17        -6.7342  -10.1463    5.1123 C.3       1 <0>        -0.1421
     24 C18        -6.3913   -9.9279    3.6292 C.3       1 <0>        -0.1332
     25 H1          1.0042    1.8801    0.0026 H         1 <0>         0.0708
     26 H2         -0.5455    1.8639   -0.8728 H         1 <0>         0.0674
     27 H3         -0.5286    1.8543    0.9071 H         1 <0>         0.0695
     28 H4         -0.0069   -0.1243   -2.1186 H         1 <0>         0.1302
     29 H5          0.0485   -2.6107    2.1533 H         1 <0>         0.1172
     30 H6         -1.0028    0.2308    2.8289 H         1 <0>         0.0722
     31 H7          0.5534   -0.5164    3.2628 H         1 <0>         0.0652
     32 H8          0.5236    1.0210    2.3663 H         1 <0>         0.0731
     33 H9          0.0622   -5.1111   -2.2432 H         1 <0>         0.2133
     34 H10         0.5224   -6.1084    0.1291 H         1 <0>         0.1338
     35 H11         0.6688   -4.9745    1.4932 H         1 <0>         0.1253
     36 H12        -0.8135   -7.0933    2.2523 H         1 <0>         0.4269
     37 H13        -6.0668   -6.2336    2.0894 H         1 <0>         0.1744
     38 H14        -7.2173   -7.8879    3.8573 H         1 <0>         0.1168
     39 H15        -4.8946   -9.0110    5.5845 H         1 <0>         0.0816
     40 H16        -6.4271   -8.2190    6.1549 H         1 <0>         0.0756
     41 H17        -6.2736  -11.0366    5.5404 H         1 <0>         0.0726
     42 H18        -7.7999  -10.0738    5.3293 H         1 <0>         0.0856
     43 H19        -7.2118  -10.1650    2.9519 H         1 <0>         0.0751
     44 H20        -5.4475  -10.3821    3.3277 H         1 <0>         0.0824
@<TRIPOS>BOND
     1    1    2 1
     2    1   25 1
     3    1   26 1
     4    1   27 1
     5    2    7 ar
     6    2    3 ar
     7    3    4 ar
     8    3   28 1
     9    4   11 1
    10    4    5 ar
    11    5    6 ar
    12    5    9 1
    13    6    7 ar
    14    6   29 1
    15    7    8 1
    16    8   30 1
    17    8   31 1
    18    8   32 1
    19    9   10 1
    20    9   12 1
    21   10   11 2
    22   10   33 1
    23   12   13 1
    24   12   34 1
    25   12   35 1
    26   13   14 2
    27   13   15 am
    28   15   16 1
    29   15   36 1
    30   16   20 1
    31   16   17 2
    32   17   18 1
    33   18   19 2
    34   18   37 1
    35   19   20 1
    36   19   21 1
    37   21   24 1
    38   21   22 1
    39   21   38 1
    40   22   23 1
    41   22   39 1
    42   22   40 1
    43   23   24 1
    44   23   41 1
    45   23   42 1
    46   24   43 1
    47   24   44 1
@<TRIPOS>MOLECULE
CHEMBL103039
   49    52     0     0     0
SMALL
USER_CHARGES

@<TRIPOS>ATOM
      1 C1          0.1068    1.4149   -0.3497 C.ar      1 <0>        -0.0648
      2 C2          1.2789    2.1412   -0.2844 C.ar      1 <0>        -0.1444
      3 C3          2.5096    1.4874   -0.3511 C.ar      1 <0>         0.0099
      4 C4          2.5508    0.1002   -0.4833 C.ar      1 <0>        -0.1884
      5 C5          1.3684   -0.6209   -0.5475 C.ar      1 <0>         0.2256
      6 C6          0.1470    0.0398   -0.4807 C.ar      1 <0>        -0.1861
      7 N1          1.4043   -2.0111   -0.6804 N.pl3     1 <0>        -0.6324
      8 C7          2.6794   -2.7216   -0.8667 C.3       1 <0>         0.0852
      9 C8          2.7502   -3.8635    0.1535 C.3       1 <0>         0.0452
     10 O1          1.5630   -4.6542    0.0581 O.3       1 <0>        -0.3776
     11 C9          0.3613   -3.9460    0.3715 C.3       1 <0>         0.0451
     12 C10         0.1687   -2.8088   -0.6320 C.3       1 <0>         0.0858
     13 C11         3.7674    2.2641   -0.2824 C.2       1 <0>         0.1589
     14 C12         3.8741    3.6189   -0.1488 C.2       1 <0>        -0.2718
     15 C13         5.2373    3.9407   -0.1258 C.2       1 <0>         0.3204
     16 N2          5.9280    2.8300   -0.2403 N.2       1 <0>        -0.3139
     17 N3          5.0318    1.7578   -0.3347 N.pl3     1 <0>        -0.4672
     18 H1          5.2689    0.8215   -0.4240 H         1 <0>         0.4411
     19 N4          5.7725    5.2286   -0.0021 N.pl3     1 <0>        -0.6461
     20 C14         7.1508    5.4261   -0.1155 C.ar      1 <0>         0.2387
     21 C15         7.9100    4.5886   -0.9232 C.ar      1 <0>        -0.1659
     22 C16         9.2722    4.7871   -1.0333 C.ar      1 <0>         0.0085
     23 C17         9.8808    5.8177   -0.3405 C.ar      1 <0>        -0.7097
     24 C18         9.1280    6.6532    0.4643 C.ar      1 <0>         0.0141
     25 C19         7.7645    6.4641    0.5746 C.ar      1 <0>        -0.1848
     26 S1         11.6193    6.0664   -0.4831 S.o2      1 <0>         2.7043
     27 O2         12.0283    6.7566    0.6897 O.2       1 <0>        -0.9660
     28 O3         12.1782    4.8174   -0.8660 O.2       1 <0>        -0.9639
     29 N5         11.8632    7.1028   -1.7515 N.pl3     1 <0>        -1.2494
     30 H2         -0.8448    1.9226   -0.2937 H         1 <0>         0.1304
     31 H3          1.2432    3.2158   -0.1821 H         1 <0>         0.1284
     32 H4          3.5007   -0.4110   -0.5357 H         1 <0>         0.1195
     33 H5         -0.7732   -0.5233   -0.5313 H         1 <0>         0.1268
     34 H6          2.7289   -3.1281   -1.8768 H         1 <0>         0.0741
     35 H7          3.5097   -2.0339   -0.7061 H         1 <0>         0.0896
     36 H8          3.6200   -4.4859   -0.0564 H         1 <0>         0.1067
     37 H9          2.8319   -3.4494    1.1585 H         1 <0>         0.0564
     38 H10        -0.4875   -4.6278    0.3183 H         1 <0>         0.1074
     39 H11         0.4344   -3.5322    1.3772 H         1 <0>         0.0562
     40 H12        -0.6628   -2.1789   -0.3160 H         1 <0>         0.0941
     41 H13        -0.0389   -3.2243   -1.6180 H         1 <0>         0.0730
     42 H14         3.0540    4.3176   -0.0746 H         1 <0>         0.1553
     43 H15         5.1862    5.9837    0.1623 H         1 <0>         0.4257
     44 H16         7.4356    3.7832   -1.4640 H         1 <0>         0.1448
     45 H17         9.8631    4.1364   -1.6610 H         1 <0>         0.1431
     46 H18         9.6065    7.4571    1.0040 H         1 <0>         0.1448
     47 H19         7.1766    7.1195    1.2001 H         1 <0>         0.1361
     48 H20        12.6276    7.7000   -1.7498 H         1 <0>         0.4208
     49 H21        11.2417    7.1127   -2.4961 H         1 <0>         0.4167
@<TRIPOS>BOND
     1    1    6 ar
     2    1    2 ar
     3    1   30 1
     4    2    3 ar
     5    2   31 1
     6    3    4 ar
     7    3   13 1
     8    4    5 ar
     9    4   32 1
    10    5    6 ar
    11    5    7 1
    12    6   33 1
    13    7   12 1
    14    7    8 1
    15    8    9 1
    16    8   34 1
    17    8   35 1
    18    9   10 1
    19    9   36 1
    20    9   37 1
    21   10   11 1
    22   11   12 1
    23   11   38 1
    24   11   39 1
    25   12   40 1
    26   12   41 1
    27   13   17 1
    28   13   14 2
    29   14   15 1
    30   14   42 1
    31   15   16 2
    32   15   19 1
    33   16   17 1
    34   17   18 1
    35   19   20 1
    36   19   43 1
    37   20   25 ar
    38   20   21 ar
    39   21   22 ar
    40   21   44 1
    41   22   23 ar
    42   22   45 1
    43   23   24 ar
    44   23   26 1
    45   24   25 ar
    46   24   46 1
    47   25   47 1
    48   26   27 2
    49   26   28 2
    50   26   29 1
    51   29   48 1
    52   29   49 1
@<TRIPOS>MOLECULE
CHEMBL103039
   49    52     0     0     0
SMALL
USER_CHARGES

@<TRIPOS>ATOM
      1 C1          0.2677    1.4138   -0.1365 C.ar      1 <0>        -0.0711
      2 C2          1.4679    2.0961   -0.1065 C.ar      1 <0>        -0.1492
      3 C3          2.6700    1.3918   -0.0818 C.ar      1 <0>         0.0279
      4 C4          2.6574   -0.0003   -0.0875 C.ar      1 <0>        -0.1688
      5 C5          1.4481   -0.6786   -0.1177 C.ar      1 <0>         0.2176
      6 C6          0.2537    0.0322   -0.1422 C.ar      1 <0>        -0.1889
      7 N1          1.4302   -2.0754   -0.1239 N.pl3     1 <0>        -0.6332
      8 C7          2.6788   -2.8484   -0.2175 C.3       1 <0>         0.0848
      9 C8          2.6847   -3.8948    0.9028 C.3       1 <0>         0.0457
     10 O1          1.4685   -4.6446    0.8529 O.3       1 <0>        -0.3793
     11 C9          0.2908   -3.8650    1.0748 C.3       1 <0>         0.0453
     12 C10         0.1628   -2.8172   -0.0310 C.3       1 <0>         0.0869
     13 C11         3.9608    2.1241   -0.0501 C.2       1 <0>         0.1446
     14 C12         4.1164    3.5185    0.0577 C.2       1 <0>        -0.2942
     15 C13         5.4488    3.7892    0.0527 C.2       1 <0>         0.3408
     16 N2          6.1102    2.6067   -0.0545 N.pl3     1 <0>        -0.4924
     17 N3          5.1580    1.5812   -0.1121 N.2       1 <0>        -0.2774
     18 H1          7.0730    2.4928   -0.0832 H         1 <0>         0.4395
     19 N4          6.0311    5.0511    0.1408 N.pl3     1 <0>        -0.6578
     20 C14         7.4127    5.1950   -0.0092 C.ar      1 <0>         0.2279
     21 C15         8.1052    4.3808   -0.8968 C.ar      1 <0>        -0.2046
     22 C16         9.4708    4.5257   -1.0425 C.ar      1 <0>         0.0195
     23 C17        10.1490    5.4798   -0.3061 C.ar      1 <0>        -0.7069
     24 C18         9.4629    6.2916    0.5786 C.ar      1 <0>         0.0226
     25 C19         8.0964    6.1563    0.7248 C.ar      1 <0>        -0.1760
     26 S1         11.8914    5.6611   -0.4952 S.o2      1 <0>         2.7046
     27 O2         12.3708    6.2524    0.7047 O.2       1 <0>        -0.9619
     28 O3         12.3790    4.4173   -0.9793 O.2       1 <0>        -0.9602
     29 N5         12.1404    6.7687   -1.7009 N.pl3     1 <0>        -1.2482
     30 H2         -0.6628    1.9617   -0.1511 H         1 <0>         0.1268
     31 H3          1.4749    3.1761   -0.1026 H         1 <0>         0.1246
     32 H4          3.5866   -0.5504   -0.0688 H         1 <0>         0.1301
     33 H5         -0.6875   -0.4968   -0.1657 H         1 <0>         0.1238
     34 H6          2.7304   -3.3467   -1.1855 H         1 <0>         0.0717
     35 H7          3.5331   -2.1815   -0.1013 H         1 <0>         0.0944
     36 H8          3.5324   -4.5668    0.7689 H         1 <0>         0.1055
     37 H9          2.7646   -3.3945    1.8679 H         1 <0>         0.0560
     38 H10        -0.5837   -4.5156    1.0647 H         1 <0>         0.1057
     39 H11         0.3621   -3.3646    2.0405 H         1 <0>         0.0555
     40 H12        -0.6483   -2.1295    0.2086 H         1 <0>         0.0930
     41 H13        -0.0433   -3.3122   -0.9799 H         1 <0>         0.0710
     42 H14         3.3198    4.2441    0.1310 H         1 <0>         0.1549
     43 H15         5.4775    5.8303    0.3062 H         1 <0>         0.4322
     44 H16         7.5762    3.6353   -1.4719 H         1 <0>         0.1363
     45 H17        10.0098    3.8929   -1.7320 H         1 <0>         0.1495
     46 H18         9.9957    7.0354    1.1524 H         1 <0>         0.1499
     47 H19         7.5604    6.7941    1.4120 H         1 <0>         0.1417
     48 H20        12.9312    7.3303   -1.6878 H         1 <0>         0.4225
     49 H21        11.4955    6.8558   -2.4202 H         1 <0>         0.4172
@<TRIPOS>BOND
     1    1    6 ar
     2    1    2 ar
     3    1   30 1
     4    2    3 ar
     5    2   31 1
     6    3    4 ar
     7    3   13 1
     8    4    5 ar
     9    4   32 1
    10    5    6 ar
    11    5    7 1
    12    6   33 1
    13    7   12 1
    14    7    8 1
    15    8    9 1
    16    8   34 1
    17    8   35 1
    18    9   10 1
    19    9   36 1
    20    9   37 1
    21   10   11 1
    22   11   12 1
    23   11   38 1
    24   11   39 1
    25   12   40 1
    26   12   41 1
    27   13   14 1
    28   13   17 2
    29   14   42 1
    30   14   15 2
    31   15   19 1
    32   15   16 1
    33   16   18 1
    34   16   17 1
    35   19   20 1
    36   19   43 1
    37   20   25 ar
    38   20   21 ar
    39   21   22 ar
    40   21   44 1
    41   22   23 ar
    42   22   45 1
    43   23   24 ar
    44   23   26 1
    45   24   25 ar
    46   24   46 1
    47   25   47 1
    48   26   27 2
    49   26   28 2
    50   26   29 1
    51   29   48 1
    52   29   49 1
@<TRIPOS>MOLECULE
CHEMBL311464
   38    41     0     0     0
SMALL
USER_CHARGES

@<TRIPOS>ATOM
      1 C1         -0.0163    1.3486    0.0095 C.2       1 <0>        -0.2072
      2 C2          1.3125    1.7938   -0.0008 C.2       1 <0>        -0.1550
      3 C3          2.1119    0.6861   -0.0144 C.2       1 <0>         0.0076
      4 N1          1.2973   -0.4196   -0.0126 N.pl3     1 <0>        -0.5280
      5 H1          1.5957   -1.3425   -0.0204 H         1 <0>         0.4214
      6 C4          0.0021   -0.0041    0.0020 C.2       1 <0>         0.0260
      7 C5          3.5848    0.6790   -0.0290 C.ar      1 <0>         0.1285
      8 C6          4.2804    1.6140   -0.8076 C.ar      1 <0>        -0.1258
      9 C7          5.6666    1.6590   -0.8633 C.ar      1 <0>        -0.0410
     10 C8          6.4222    0.6898   -0.0756 C.ar      1 <0>        -0.0400
     11 C9          7.8190    0.5984   -0.0177 C.ar      1 <0>         0.0981
     12 C10         8.3807   -0.3816    0.7816 C.ar      1 <0>        -0.1120
     13 C11         7.6208   -1.2779    1.5276 C.ar      1 <0>        -0.0765
     14 C12         6.2386   -1.2125    1.4903 C.ar      1 <0>         0.1449
     15 C13         5.6901   -0.2217    0.6835 C.ar      1 <0>        -0.0681
     16 C14         4.2876   -0.2605    0.7415 C.ar      1 <0>        -0.1675
     17 C15         3.9948   -1.3574    1.6557 C.2       1 <0>         0.5738
     18 O1          2.8842   -1.7365    1.9848 O.2       1 <0>        -0.4849
     19 N2          5.1739   -1.8952    2.0641 N.am      1 <0>        -0.6468
     20 F1          8.5981    1.4456   -0.7250 F         1 <0>        -0.1176
     21 S1          6.4927    2.8547   -1.8595 S.3       1 <0>         0.0156
     22 C16         5.1440    3.7998   -2.6199 C.3       1 <0>        -0.1973
     23 C17         5.7292    4.8870   -3.5234 C.3       1 <0>         0.0136
     24 N3          4.6370    5.6524   -4.1392 N.4       1 <0>        -0.6338
     25 H2         -0.8971    1.9734    0.0252 H         1 <0>         0.1433
     26 H3          1.6432    2.8219    0.0012 H         1 <0>         0.1363
     27 H4         -0.8661   -0.6464    0.0069 H         1 <0>         0.1728
     28 H5          3.7150    2.3281   -1.3879 H         1 <0>         0.1379
     29 H6          9.4573   -0.4546    0.8285 H         1 <0>         0.1535
     30 H7          8.1097   -2.0247    2.1355 H         1 <0>         0.1513
     31 H8          5.2598   -2.6425    2.6766 H         1 <0>         0.4302
     32 H9          4.5210    3.1306   -3.2134 H         1 <0>         0.1166
     33 H10         4.5395    4.2623   -1.8396 H         1 <0>         0.1171
     34 H11         6.3522    5.5562   -2.9299 H         1 <0>         0.1468
     35 H12         6.3337    4.4245   -4.3036 H         1 <0>         0.1465
     36 H13         4.0603    5.0329   -4.6886 H         1 <0>         0.4376
     37 H14         4.0774    6.0805   -3.4169 H         1 <0>         0.4377
     38 H15         5.0230    6.3694   -4.7350 H         1 <0>         0.4444
@<TRIPOS>BOND
     1    1    6 2
     2    1    2 1
     3    1   25 1
     4    2    3 2
     5    2   26 1
     6    3    4 1
     7    3    7 1
     8    4    5 1
     9    4    6 1
    10    6   27 1
    11    7   16 ar
    12    7    8 ar
    13    8    9 ar
    14    8   28 1
    15    9   10 ar
    16    9   21 1
    17   10   15 ar
    18   10   11 ar
    19   11   12 ar
    20   11   20 1
    21   12   13 ar
    22   12   29 1
    23   13   14 ar
    24   13   30 1
    25   14   19 1
    26   14   15 ar
    27   15   16 ar
    28   16   17 1
    29   17   18 2
    30   17   19 am
    31   19   31 1
    32   21   22 1
    33   22   23 1
    34   22   32 1
    35   22   33 1
    36   23   24 1
    37   23   34 1
    38   23   35 1
    39   24   36 1
    40   24   37 1
    41   24   38 1
@<TRIPOS>MOLECULE
CHEMBL564470
   70    74     0     0     0
SMALL
USER_CHARGES

@<TRIPOS>ATOM
      1 C1         -0.9467    1.0364    1.6163 C.3       1 <0>        -0.1475
      2 C2         -0.7146   -0.4545    1.3625 C.3       1 <0>         0.0120
      3 C3         -0.3407   -0.6685   -0.1047 C.3       1 <0>        -0.0581
      4 C4          0.2313   -2.0332   -0.3564 C.ar      1 <0>        -0.2045
      5 C5         -0.0159   -2.6969   -1.5435 C.ar      1 <0>         0.1968
      6 N1          0.5278   -3.8884   -1.7411 N.ar      1 <0>        -0.5523
      7 C6          1.3050   -4.4532   -0.8279 C.ar      1 <0>         0.5586
      8 N2          1.5616   -3.8586    0.3297 N.ar      1 <0>        -0.5551
      9 C7          1.0360   -2.6727    0.5974 C.ar      1 <0>         0.2952
     10 C8          1.2179   -1.9934    1.8917 C.2       1 <0>         0.0353
     11 C9          0.3964   -0.9441    2.2449 C.2       1 <0>        -0.1111
     12 C10         0.8381   -0.5264    3.5007 C.2       1 <0>         0.0038
     13 N3          1.8408   -1.3209    3.8450 N.2       1 <0>        -0.2426
     14 N4          2.0655   -2.1927    2.9198 N.pl3     1 <0>        -0.2462
     15 C11         3.0875   -3.2407    2.9790 C.3       1 <0>         0.0831
     16 C12         0.2911    0.5918    4.2965 C.2       1 <0>         0.6120
     17 O1         -0.7690    0.4629    4.8775 O.2       1 <0>        -0.5173
     18 N5          0.9673    1.7548    4.3783 N.am      1 <0>        -0.7211
     19 C13         0.4248    2.8636    5.1673 C.3       1 <0>         0.0856
     20 N6          1.8625   -5.6944   -1.0887 N.pl3     1 <0>        -0.6398
     21 C14         1.6940   -6.2866   -2.3439 C.ar      1 <0>         0.1757
     22 C15         1.6328   -5.4956   -3.4843 C.ar      1 <0>        -0.1063
     23 C16         1.4668   -6.0837   -4.7226 C.ar      1 <0>        -0.0947
     24 C17         1.3616   -7.4587   -4.8283 C.ar      1 <0>        -0.1382
     25 C18         1.4216   -8.2489   -3.6952 C.ar      1 <0>        -0.0732
     26 C19         1.5932   -7.6673   -2.4541 C.ar      1 <0>        -0.1267
     27 C20         1.3060   -9.7466   -3.8151 C.3       1 <0>         0.0992
     28 N7          2.6431  -10.3283   -3.9932 N.3       1 <0>        -0.5343
     29 C21         3.2263   -9.9238   -5.2802 C.3       1 <0>         0.0191
     30 C22         4.6388  -10.5001   -5.4004 C.3       1 <0>        -0.0022
     31 N8          4.5795  -11.9649   -5.3090 N.4       1 <0>        -0.3884
     32 C23         4.0178  -12.3538   -4.0087 C.3       1 <0>        -0.0020
     33 C24         2.6001  -11.7928   -3.8769 C.3       1 <0>         0.0244
     34 C25         5.9335  -12.5188   -5.4425 C.3       1 <0>        -0.0458
     35 C26        -1.9951   -1.2299    1.6787 C.3       1 <0>        -0.1391
     36 H1         -0.0058    1.5749    1.5033 H         1 <0>         0.0587
     37 H2         -1.6725    1.4185    0.8985 H         1 <0>         0.0687
     38 H3         -1.3271    1.1778    2.6279 H         1 <0>         0.0681
     39 H4         -1.2325   -0.5410   -0.7184 H         1 <0>         0.0916
     40 H5          0.3951    0.0816   -0.3945 H         1 <0>         0.0855
     41 H6         -0.6444   -2.2501   -2.2997 H         1 <0>         0.1790
     42 H7          4.0194   -2.8636    2.5577 H         1 <0>         0.0874
     43 H8          3.2495   -3.5320    4.0168 H         1 <0>         0.1000
     44 H9          2.7540   -4.1062    2.4065 H         1 <0>         0.1090
     45 H10         1.8131    1.8577    3.9147 H         1 <0>         0.4049
     46 H11         1.1053    3.7135    5.1155 H         1 <0>         0.0807
     47 H12        -0.5477    3.1519    4.7682 H         1 <0>         0.0652
     48 H13         0.3132    2.5503    6.2054 H         1 <0>         0.0645
     49 H14         2.3696   -6.1526   -0.4004 H         1 <0>         0.4237
     50 H15         1.7146   -4.4218   -3.4024 H         1 <0>         0.1371
     51 H16         1.4188   -5.4693   -5.6095 H         1 <0>         0.1281
     52 H17         1.2318   -7.9162   -5.7979 H         1 <0>         0.1180
     53 H18         1.6446   -8.2854   -1.5700 H         1 <0>         0.1252
     54 H19         0.8521  -10.1496   -2.9098 H         1 <0>         0.0962
     55 H20         0.6841   -9.9953   -4.6751 H         1 <0>         0.0577
     56 H21         2.6085  -10.3024   -6.0945 H         1 <0>         0.0609
     57 H22         3.2716   -8.8360   -5.3331 H         1 <0>         0.1283
     58 H23         5.0678  -10.2131   -6.3605 H         1 <0>         0.1353
     59 H24         5.2599  -10.1106   -4.5939 H         1 <0>         0.1368
     60 H25         3.9864  -13.4409   -3.9369 H         1 <0>         0.1358
     61 H26         4.6421  -11.9547   -3.2093 H         1 <0>         0.1371
     62 H27         2.1887  -12.0686   -2.9060 H         1 <0>         0.1238
     63 H28         1.9720  -12.2022   -4.6681 H         1 <0>         0.0614
     64 H29         6.5654  -12.1301   -4.6440 H         1 <0>         0.1227
     65 H30         5.8897  -13.6058   -5.3747 H         1 <0>         0.1241
     66 H31         6.3500  -12.2315   -6.4080 H         1 <0>         0.1241
     67 H32        -2.8029   -0.8736    1.0395 H         1 <0>         0.0666
     68 H33        -1.8305   -2.2922    1.4981 H         1 <0>         0.0500
     69 H34        -2.2641   -1.0764    2.7238 H         1 <0>         0.0671
     70 H35         3.9950  -12.3245   -6.0487 H         1 <0>         0.4224
@<TRIPOS>BOND
     1    1    2 1
     2    1   36 1
     3    1   37 1
     4    1   38 1
     5    2   11 1
     6    2    3 1
     7    2   35 1
     8    3    4 1
     9    3   39 1
    10    3   40 1
    11    4    9 ar
    12    4    5 ar
    13    5    6 ar
    14    5   41 1
    15    6    7 ar
    16    7    8 ar
    17    7   20 1
    18    8    9 ar
    19    9   10 1
    20   10   14 1
    21   10   11 2
    22   11   12 1
    23   12   13 2
    24   12   16 1
    25   13   14 1
    26   14   15 1
    27   15   42 1
    28   15   43 1
    29   15   44 1
    30   16   17 2
    31   16   18 am
    32   18   19 1
    33   18   45 1
    34   19   46 1
    35   19   47 1
    36   19   48 1
    37   20   21 1
    38   20   49 1
    39   21   26 ar
    40   21   22 ar
    41   22   23 ar
    42   22   50 1
    43   23   24 ar
    44   23   51 1
    45   24   25 ar
    46   24   52 1
    47   25   26 ar
    48   25   27 1
    49   26   53 1
    50   27   28 1
    51   27   54 1
    52   27   55 1
    53   28   33 1
    54   28   29 1
    55   29   30 1
    56   29   56 1
    57   29   57 1
    58   30   31 1
    59   30   58 1
    60   30   59 1
    61   31   32 1
    62   31   34 1
    63   31   70 1
    64   32   33 1
    65   32   60 1
    66   32   61 1
    67   33   62 1
    68   33   63 1
    69   34   64 1
    70   34   65 1
    71   34   66 1
    72   35   67 1
    73   35   68 1
    74   35   69 1
@<TRIPOS>MOLECULE
CHEMBL564470
   70    74     0     0     0
SMALL
USER_CHARGES

@<TRIPOS>ATOM
      1 C1         -0.9467    1.0364    1.6163 C.3       1 <0>        -0.1482
      2 C2         -0.7146   -0.4545    1.3625 C.3       1 <0>         0.0117
      3 C3         -0.3407   -0.6685   -0.1047 C.3       1 <0>        -0.0601
      4 C4          0.2313   -2.0332   -0.3564 C.ar      1 <0>        -0.1975
      5 C5         -0.0159   -2.6969   -1.5435 C.ar      1 <0>         0.1966
      6 N1          0.5278   -3.8884   -1.7411 N.ar      1 <0>        -0.5551
      7 C6          1.3050   -4.4532   -0.8279 C.ar      1 <0>         0.5542
      8 N2          1.5616   -3.8586    0.3297 N.ar      1 <0>        -0.5518
      9 C7          1.0360   -2.6727    0.5974 C.ar      1 <0>         0.2975
     10 C8          1.2179   -1.9934    1.8917 C.2       1 <0>         0.0314
     11 C9          0.3964   -0.9441    2.2449 C.2       1 <0>        -0.1090
     12 C10         0.8381   -0.5264    3.5007 C.2       1 <0>         0.0049
     13 N3          1.8408   -1.3209    3.8450 N.2       1 <0>        -0.2401
     14 N4          2.0655   -2.1927    2.9198 N.pl3     1 <0>        -0.2458
     15 C11         3.0875   -3.2407    2.9790 C.3       1 <0>         0.0830
     16 C12         0.2911    0.5918    4.2965 C.2       1 <0>         0.6112
     17 O1         -0.7690    0.4629    4.8775 O.2       1 <0>        -0.5166
     18 N5          0.9673    1.7548    4.3783 N.am      1 <0>        -0.7206
     19 C13         0.4248    2.8636    5.1673 C.3       1 <0>         0.0853
     20 N6          1.8625   -5.6944   -1.0887 N.pl3     1 <0>        -0.6413
     21 C14         1.6940   -6.2866   -2.3439 C.ar      1 <0>         0.1848
     22 C15         1.6328   -5.4956   -3.4843 C.ar      1 <0>        -0.0853
     23 C16         1.4668   -6.0837   -4.7226 C.ar      1 <0>        -0.0894
     24 C17         1.3616   -7.4587   -4.8283 C.ar      1 <0>        -0.1178
     25 C18         1.4216   -8.2489   -3.6952 C.ar      1 <0>        -0.1368
     26 C19         1.5932   -7.6673   -2.4541 C.ar      1 <0>        -0.1325
     27 C20         1.3060   -9.7466   -3.8151 C.3       1 <0>         0.0469
     28 N7          2.6431  -10.3283   -3.9932 N.4       1 <0>        -0.3850
     29 C21         3.2067   -9.8768   -5.2723 C.3       1 <0>        -0.0071
     30 C22         4.6073  -10.4674   -5.4496 C.3       1 <0>         0.0260
     31 N8          4.5243  -11.9345   -5.4218 N.3       1 <0>        -0.5432
     32 C23         3.9386  -12.4003   -4.1568 C.3       1 <0>         0.0245
     33 C24         2.5436  -11.7938   -3.9902 C.3       1 <0>        -0.0027
     34 C25         5.8434  -12.5408   -5.6459 C.3       1 <0>         0.0194
     35 C26        -1.9951   -1.2299    1.6787 C.3       1 <0>        -0.1393
     36 H1         -0.0058    1.5749    1.5033 H         1 <0>         0.0592
     37 H2         -1.6725    1.4185    0.8985 H         1 <0>         0.0695
     38 H3         -1.3271    1.1778    2.6279 H         1 <0>         0.0689
     39 H4         -1.2325   -0.5410   -0.7184 H         1 <0>         0.0932
     40 H5          0.3951    0.0816   -0.3945 H         1 <0>         0.0876
     41 H6         -0.6444   -2.2501   -2.2997 H         1 <0>         0.1813
     42 H7          4.0194   -2.8636    2.5577 H         1 <0>         0.0879
     43 H8          3.2495   -3.5320    4.0168 H         1 <0>         0.1009
     44 H9          2.7540   -4.1062    2.4065 H         1 <0>         0.1079
     45 H10         1.8131    1.8577    3.9147 H         1 <0>         0.4050
     46 H11        -0.5477    3.1519    4.7682 H         1 <0>         0.0655
     47 H12         0.3132    2.5503    6.2054 H         1 <0>         0.0649
     48 H13         1.1053    3.7135    5.1155 H         1 <0>         0.0812
     49 H14         2.3696   -6.1526   -0.4004 H         1 <0>         0.4256
     50 H15         1.7146   -4.4218   -3.4024 H         1 <0>         0.1453
     51 H16         1.4188   -5.4693   -5.6095 H         1 <0>         0.1389
     52 H17         1.2318   -7.9162   -5.7979 H         1 <0>         0.1321
     53 H18         1.6446   -8.2854   -1.5700 H         1 <0>         0.1318
     54 H19         0.8521  -10.1496   -2.9098 H         1 <0>         0.1367
     55 H20         0.6841   -9.9953   -4.6751 H         1 <0>         0.1388
     56 H21         2.5662  -10.2092   -6.0891 H         1 <0>         0.1378
     57 H22         3.2679   -8.7885   -5.2784 H         1 <0>         0.1373
     58 H23         5.0198  -10.1445   -6.4054 H         1 <0>         0.1230
     59 H24         5.2518  -10.1242   -4.6403 H         1 <0>         0.0589
     60 H25         3.8633  -13.4876   -4.1695 H         1 <0>         0.1239
     61 H26         4.5721  -12.0889   -3.3263 H         1 <0>         0.0595
     62 H27         2.1131  -12.1267   -3.0457 H         1 <0>         0.1358
     63 H28         1.9064  -12.1164   -4.8136 H         1 <0>         0.1389
     64 H29         6.5305  -12.2147   -4.8651 H         1 <0>         0.0389
     65 H30         5.7533  -13.6267   -5.6203 H         1 <0>         0.0838
     66 H31         6.2253  -12.2307   -6.6186 H         1 <0>         0.0842
     67 H32        -2.8029   -0.8736    1.0395 H         1 <0>         0.0674
     68 H33        -1.8305   -2.2922    1.4981 H         1 <0>         0.0493
     69 H34        -2.2641   -1.0764    2.7238 H         1 <0>         0.0680
     70 H35         3.2425  -10.0305   -3.2382 H         1 <0>         0.4190
@<TRIPOS>BOND
     1    1    2 1
     2    1   36 1
     3    1   37 1
     4    1   38 1
     5    2   11 1
     6    2    3 1
     7    2   35 1
     8    3    4 1
     9    3   39 1
    10    3   40 1
    11    4    9 ar
    12    4    5 ar
    13    5    6 ar
    14    5   41 1
    15    6    7 ar
    16    7    8 ar
    17    7   20 1
    18    8    9 ar
    19    9   10 1
    20   10   14 1
    21   10   11 2
    22   11   12 1
    23   12   13 2
    24   12   16 1
    25   13   14 1
    26   14   15 1
    27   15   42 1
    28   15   43 1
    29   15   44 1
    30   16   17 2
    31   16   18 am
    32   18   19 1
    33   18   45 1
    34   19   46 1
    35   19   47 1
    36   19   48 1
    37   20   21 1
    38   20   49 1
    39   21   26 ar
    40   21   22 ar
    41   22   23 ar
    42   22   50 1
    43   23   24 ar
    44   23   51 1
    45   24   25 ar
    46   24   52 1
    47   25   26 ar
    48   25   27 1
    49   26   53 1
    50   27   28 1
    51   27   54 1
    52   27   55 1
    53   28   33 1
    54   28   29 1
    55   28   70 1
    56   29   30 1
    57   29   56 1
    58   29   57 1
    59   30   31 1
    60   30   58 1
    61   30   59 1
    62   31   32 1
    63   31   34 1
    64   32   33 1
    65   32   60 1
    66   32   61 1
    67   33   62 1
    68   33   63 1
    69   34   64 1
    70   34   65 1
    71   34   66 1
    72   35   67 1
    73   35   68 1
    74   35   69 1
@<TRIPOS>MOLECULE
CHEMBL404747
   43    46     0     0     0
SMALL
USER_CHARGES

@<TRIPOS>ATOM
      1 C1          0.0330    1.4668    0.0105 C.ar      1 <0>        -0.1171
      2 C2          1.2250    2.1668    0.0161 C.ar      1 <0>        -0.1191
      3 C3          2.4272    1.4846    0.0008 C.ar      1 <0>        -0.1034
      4 C4          2.4374    0.1024   -0.0195 C.ar      1 <0>        -0.0731
      5 C5          1.2453   -0.5975   -0.0241 C.ar      1 <0>        -0.1034
      6 C6          0.0431    0.0847   -0.0103 C.ar      1 <0>        -0.1191
      7 C7          3.7479   -0.6413   -0.0371 C.3       1 <0>        -0.0966
      8 C8          4.1920   -0.9100    1.3777 C.2       1 <0>         0.5063
      9 O1          3.5113   -0.5345    2.3088 O.2       1 <0>        -0.4761
     10 N1          5.3457   -1.5675    1.6085 N.am      1 <0>        -0.6365
     11 C9          5.7581   -1.8171    2.9224 C.2       1 <0>         0.3160
     12 C10         6.9824   -2.5100    3.3265 C.ar      1 <0>        -0.1553
     13 C11         8.0415   -3.0957    2.6261 C.ar      1 <0>        -0.0789
     14 C12         9.0752   -3.6855    3.3260 C.ar      1 <0>         0.1195
     15 C13         9.0643   -3.6980    4.7211 C.ar      1 <0>        -0.0924
     16 C14         8.0361   -3.1296    5.4158 C.ar      1 <0>        -0.1155
     17 C15         6.9810   -2.5275    4.7337 C.ar      1 <0>         0.1254
     18 N2          5.8350   -1.8891    5.1368 N.pl3     1 <0>        -0.5033
     19 H1          5.5641   -1.7486    6.0576 H         1 <0>         0.4441
     20 N3          5.1225   -1.4686    4.0093 N.2       1 <0>        -0.2295
     21 N4         10.1405   -4.2747    2.6317 N.am      1 <0>        -0.5561
     22 C16        11.3412   -4.8261    3.2705 C.3       1 <0>         0.0942
     23 C17        11.9983   -5.7289    2.2030 C.3       1 <0>        -0.1323
     24 C18        11.4791   -5.0955    0.8914 C.3       1 <0>        -0.1535
     25 C19        10.1911   -4.4127    1.2956 C.2       1 <0>         0.5145
     26 O2          9.3304   -4.0415    0.5257 O.2       1 <0>        -0.5145
     27 H2         -0.9062    1.9998    0.0269 H         1 <0>         0.1219
     28 H3          1.2171    3.2466    0.0319 H         1 <0>         0.1226
     29 H4          3.3585    2.0315    0.0045 H         1 <0>         0.1201
     30 H5          1.2533   -1.6774   -0.0403 H         1 <0>         0.1201
     31 H6         -0.8882   -0.4622   -0.0143 H         1 <0>         0.1227
     32 H7          3.6220   -1.5870   -0.5642 H         1 <0>         0.1097
     33 H8          4.5006   -0.0391   -0.5460 H         1 <0>         0.1096
     34 H9          5.8901   -1.8678    0.8640 H         1 <0>         0.4239
     35 H10         8.0506   -3.0872    1.5462 H         1 <0>         0.1598
     36 H11         9.8783   -4.1630    5.2573 H         1 <0>         0.1354
     37 H12         8.0405   -3.1465    6.4956 H         1 <0>         0.1358
     38 H13        12.0204   -4.0222    3.5544 H         1 <0>         0.0831
     39 H14        11.0663   -5.4152    4.1454 H         1 <0>         0.0878
     40 H15        13.0853   -5.6725    2.2598 H         1 <0>         0.0976
     41 H16        11.6571   -6.7596    2.3002 H         1 <0>         0.0868
     42 H17        12.1963   -4.3695    0.5084 H         1 <0>         0.1105
     43 H18        11.2815   -5.8670    0.1473 H         1 <0>         0.1080
@<TRIPOS>BOND
     1    1    6 ar
     2    1    2 ar
     3    1   27 1
     4    2    3 ar
     5    2   28 1
     6    3    4 ar
     7    3   29 1
     8    4    5 ar
     9    4    7 1
    10    5    6 ar
    11    5   30 1
    12    6   31 1
    13    7    8 1
    14    7   32 1
    15    7   33 1
    16    8    9 2
    17    8   10 am
    18   10   11 1
    19   10   34 1
    20   11   20 2
    21   11   12 1
    22   12   17 ar
    23   12   13 ar
    24   13   14 ar
    25   13   35 1
    26   14   15 ar
    27   14   21 1
    28   15   16 ar
    29   15   36 1
    30   16   17 ar
    31   16   37 1
    32   17   18 1
    33   18   19 1
    34   18   20 1
    35   21   25 am
    36   21   22 1
    37   22   23 1
    38   22   38 1
    39   22   39 1
    40   23   24 1
    41   23   40 1
    42   23   41 1
    43   24   25 1
    44   24   42 1
    45   24   43 1
    46   25   26 2
@<TRIPOS>MOLECULE
CHEMBL143147
   55    58     0     0     0
SMALL
USER_CHARGES

@<TRIPOS>ATOM
      1 C1         -1.0300    1.1849    0.3578 C.3       1 <0>        -0.1694
      2 C2         -0.1922   -0.0611    0.0639 C.3       1 <0>         0.1248
      3 C3          1.0768   -0.0356    0.9182 C.3       1 <0>        -0.1689
      4 N1         -0.9715   -1.2599    0.3827 N.am      1 <0>        -0.5018
      5 C4         -1.4192   -1.4453    1.6372 C.2       1 <0>         0.5417
      6 O1         -1.1658   -0.6087    2.4865 O.2       1 <0>        -0.5089
      7 C5         -2.1737   -2.5803    1.9968 C.2       1 <0>        -0.2232
      8 C6         -2.4687   -3.5271    1.0679 C.2       1 <0>         0.0042
      9 C7         -1.9856   -3.3327   -0.2957 C.ar      1 <0>        -0.2822
     10 C8         -1.2387   -2.1741   -0.6035 C.ar      1 <0>         0.4646
     11 N2         -0.8087   -2.0047   -1.8471 N.ar      1 <0>        -0.5940
     12 C9         -1.0822   -2.9057   -2.7792 C.ar      1 <0>         0.6035
     13 N3         -1.7865   -4.0034   -2.5260 N.ar      1 <0>        -0.5762
     14 C10        -2.2437   -4.2583   -1.3131 C.ar      1 <0>         0.2564
     15 N4         -0.6179   -2.6956   -4.0629 N.pl3     1 <0>        -0.6323
     16 C11        -0.9889   -3.5687   -5.0936 C.ar      1 <0>         0.1289
     17 C12        -2.2827   -4.0705   -5.1464 C.ar      1 <0>        -0.0572
     18 C13        -2.6484   -4.9311   -6.1623 C.ar      1 <0>        -0.1652
     19 C14        -1.7226   -5.2945   -7.1315 C.ar      1 <0>         0.1838
     20 C15        -0.4288   -4.7923   -7.0788 C.ar      1 <0>        -0.1642
     21 C16        -0.0646   -3.9279   -6.0656 C.ar      1 <0>        -0.0932
     22 N5         -2.0931   -6.1671   -8.1608 N.pl3     1 <0>        -0.6452
     23 C17        -1.1013   -6.6577   -9.1302 C.3       1 <0>         0.1001
     24 C18        -1.2173   -8.1833   -9.2140 C.3       1 <0>        -0.0233
     25 N6         -2.6040   -8.5513   -9.5267 N.4       1 <0>        -0.3838
     26 C19        -3.4888   -8.1476   -8.4266 C.3       1 <0>        -0.0232
     27 C20        -3.4842   -6.6247   -8.3005 C.3       1 <0>         0.0990
     28 C21        -2.6922  -10.0055   -9.7152 C.3       1 <0>        -0.0471
     29 H1         -0.4502    2.0769    0.1206 H         1 <0>         0.0755
     30 H2         -1.9340    1.1667   -0.2508 H         1 <0>         0.0540
     31 H3         -1.3027    1.1988    1.4131 H         1 <0>         0.0832
     32 H4          0.0805   -0.0749   -0.9914 H         1 <0>         0.1117
     33 H5          0.8042   -0.0217    1.9735 H         1 <0>         0.0826
     34 H6          1.6737   -0.9232    0.7088 H         1 <0>         0.0541
     35 H7          1.6567    0.8564    0.6810 H         1 <0>         0.0756
     36 H8         -2.5181   -2.6978    3.0136 H         1 <0>         0.1613
     37 H9         -3.0455   -4.4012    1.3319 H         1 <0>         0.1529
     38 H10        -2.8148   -5.1532   -1.1143 H         1 <0>         0.1852
     39 H11        -0.0349   -1.9435   -4.2508 H         1 <0>         0.4267
     40 H12        -3.0027   -3.7878   -4.3927 H         1 <0>         0.1346
     41 H13        -3.6544   -5.3218   -6.2030 H         1 <0>         0.1262
     42 H14         0.2913   -5.0750   -7.8325 H         1 <0>         0.1274
     43 H15         0.9405   -3.5344   -6.0268 H         1 <0>         0.1316
     44 H16        -1.2989   -6.2211  -10.1092 H         1 <0>         0.0873
     45 H17        -0.0993   -6.3842   -8.7994 H         1 <0>         0.1261
     46 H18        -0.5570   -8.5556   -9.9972 H         1 <0>         0.1405
     47 H19        -0.9315   -8.6225   -8.2582 H         1 <0>         0.1324
     48 H20        -4.5023   -8.4935   -8.6297 H         1 <0>         0.1409
     49 H21        -3.1342   -8.5879   -7.4947 H         1 <0>         0.1325
     50 H22        -4.0569   -6.3294   -7.4214 H         1 <0>         0.1270
     51 H23        -3.9265   -6.1846   -9.1943 H         1 <0>         0.0870
     52 H24        -2.3790  -10.5100   -8.8012 H         1 <0>         0.1216
     53 H25        -3.7212  -10.2800   -9.9475 H         1 <0>         0.1251
     54 H26        -2.0418  -10.3054  -10.5369 H         1 <0>         0.1249
     55 H27        -2.8908   -8.0866  -10.3752 H         1 <0>         0.4246
@<TRIPOS>BOND
     1    1    2 1
     2    1   29 1
     3    1   30 1
     4    1   31 1
     5    2    3 1
     6    2    4 1
     7    2   32 1
     8    3   33 1
     9    3   34 1
    10    3   35 1
    11    4   10 1
    12    4    5 am
    13    5    6 2
    14    5    7 1
    15    7    8 2
    16    7   36 1
    17    8    9 1
    18    8   37 1
    19    9   14 ar
    20    9   10 ar
    21   10   11 ar
    22   11   12 ar
    23   12   13 ar
    24   12   15 1
    25   13   14 ar
    26   14   38 1
    27   15   16 1
    28   15   39 1
    29   16   21 ar
    30   16   17 ar
    31   17   18 ar
    32   17   40 1
    33   18   19 ar
    34   18   41 1
    35   19   20 ar
    36   19   22 1
    37   20   21 ar
    38   20   42 1
    39   21   43 1
    40   22   27 1
    41   22   23 1
    42   23   24 1
    43   23   44 1
    44   23   45 1
    45   24   25 1
    46   24   46 1
    47   24   47 1
    48   25   26 1
    49   25   28 1
    50   25   55 1
    51   26   27 1
    52   26   48 1
    53   26   49 1
    54   27   50 1
    55   27   51 1
    56   28   52 1
    57   28   53 1
    58   28   54 1
@<TRIPOS>MOLECULE
CHEMBL143147
   54    57     0     0     0
SMALL
USER_CHARGES

@<TRIPOS>ATOM
      1 C1         -1.0300    1.1839    0.3587 C.3       1 <0>        -0.1684
      2 C2         -0.1917   -0.0616    0.0642 C.3       1 <0>         0.1249
      3 C3          1.0776   -0.0357    0.9180 C.3       1 <0>        -0.1678
      4 N1         -0.9703   -1.2609    0.3831 N.am      1 <0>        -0.5022
      5 C4         -1.4174   -1.4467    1.6378 C.2       1 <0>         0.5439
      6 O1         -1.1641   -0.6101    2.4871 O.2       1 <0>        -0.5179
      7 C5         -2.1713   -2.5821    1.9975 C.2       1 <0>        -0.2345
      8 C6         -2.4662   -3.5289    1.0685 C.2       1 <0>         0.0125
      9 C7         -1.9838   -3.3340   -0.2953 C.ar      1 <0>        -0.2922
     10 C8         -1.2376   -2.1750   -0.6031 C.ar      1 <0>         0.4639
     11 N2         -0.8081   -2.0052   -1.8469 N.ar      1 <0>        -0.6001
     12 C9         -1.0816   -2.9062   -2.7791 C.ar      1 <0>         0.6070
     13 N3         -1.7853   -4.0043   -2.5257 N.ar      1 <0>        -0.5698
     14 C10        -2.2419   -4.2596   -1.3127 C.ar      1 <0>         0.2590
     15 N4         -0.6179   -2.6956   -4.0629 N.pl3     1 <0>        -0.6240
     16 C11        -0.9889   -3.5687   -5.0936 C.ar      1 <0>         0.0917
     17 C12        -2.2825   -4.0711   -5.1459 C.ar      1 <0>        -0.0504
     18 C13        -2.6482   -4.9317   -6.1618 C.ar      1 <0>        -0.1828
     19 C14        -1.7226   -5.2945   -7.1315 C.ar      1 <0>         0.2149
     20 C15        -0.4291   -4.7917   -7.0793 C.ar      1 <0>        -0.1824
     21 C16        -0.0648   -3.9273   -6.0661 C.ar      1 <0>        -0.0855
     22 N5         -2.0931   -6.1671   -8.1608 N.pl3     1 <0>        -0.6308
     23 C17        -1.1004   -6.6567   -9.1293 C.3       1 <0>         0.1259
     24 C18        -1.2018   -8.1841   -9.2004 C.3       1 <0>         0.0383
     25 N6         -2.5908   -8.5666   -9.4874 N.3       1 <0>        -0.5427
     26 C19        -3.4930   -8.1478   -8.4065 C.3       1 <0>         0.0380
     27 C20        -3.4843   -6.6238   -8.2992 C.3       1 <0>         0.1253
     28 C21        -2.6990  -10.0108   -9.7336 C.3       1 <0>         0.0242
     29 H1         -0.4507    2.0762    0.1214 H         1 <0>         0.0733
     30 H2         -1.9343    1.1655   -0.2496 H         1 <0>         0.0540
     31 H3         -1.3022    1.1975    1.4140 H         1 <0>         0.0822
     32 H4          0.0806   -0.0752   -0.9912 H         1 <0>         0.1121
     33 H5          0.8054   -0.0221    1.9734 H         1 <0>         0.0816
     34 H6          1.6749   -0.9230    0.7082 H         1 <0>         0.0540
     35 H7          1.6569    0.8566    0.6807 H         1 <0>         0.0735
     36 H8         -2.5152   -2.7000    3.0144 H         1 <0>         0.1582
     37 H9         -3.0425   -4.4033    1.3326 H         1 <0>         0.1510
     38 H10        -2.8124   -5.1548   -1.1139 H         1 <0>         0.1840
     39 H11        -0.0354   -1.9431   -4.2509 H         1 <0>         0.4231
     40 H12        -3.0023   -3.7890   -4.3918 H         1 <0>         0.1273
     41 H13        -3.6540   -5.3230   -6.2021 H         1 <0>         0.1257
     42 H14         0.2908   -5.0738   -7.8333 H         1 <0>         0.1266
     43 H15         0.9400   -3.5332   -6.0277 H         1 <0>         0.1243
     44 H16        -1.3054   -6.2301  -10.1112 H         1 <0>         0.0704
     45 H17        -0.0999   -6.3709   -8.8045 H         1 <0>         0.0865
     46 H18        -0.5512   -8.5554   -9.9922 H         1 <0>         0.0859
     47 H19        -0.8959   -8.6137   -8.2465 H         1 <0>         0.0387
     48 H20        -4.5042   -8.4927   -8.6225 H         1 <0>         0.0863
     49 H21        -3.1553   -8.5779   -7.4636 H         1 <0>         0.0385
     50 H22        -4.0593   -6.3162   -7.4258 H         1 <0>         0.0874
     51 H23        -3.9229   -6.1939   -9.1997 H         1 <0>         0.0702
     52 H24        -2.3614  -10.5559   -8.8522 H         1 <0>         0.0260
     53 H25        -3.7375  -10.2668   -9.9435 H         1 <0>         0.0705
     54 H26        -2.0783  -10.2812  -10.5879 H         1 <0>         0.0707
@<TRIPOS>BOND
     1    1    2 1
     2    1   29 1
     3    1   30 1
     4    1   31 1
     5    2    3 1
     6    2    4 1
     7    2   32 1
     8    3   33 1
     9    3   34 1
    10    3   35 1
    11    4   10 1
    12    4    5 am
    13    5    6 2
    14    5    7 1
    15    7    8 2
    16    7   36 1
    17    8    9 1
    18    8   37 1
    19    9   14 ar
    20    9   10 ar
    21   10   11 ar
    22   11   12 ar
    23   12   13 ar
    24   12   15 1
    25   13   14 ar
    26   14   38 1
    27   15   16 1
    28   15   39 1
    29   16   21 ar
    30   16   17 ar
    31   17   18 ar
    32   17   40 1
    33   18   19 ar
    34   18   41 1
    35   19   20 ar
    36   19   22 1
    37   20   21 ar
    38   20   42 1
    39   21   43 1
    40   22   27 1
    41   22   23 1
    42   23   24 1
    43   23   44 1
    44   23   45 1
    45   24   25 1
    46   24   46 1
    47   24   47 1
    48   25   26 1
    49   25   28 1
    50   26   27 1
    51   26   48 1
    52   26   49 1
    53   27   50 1
    54   27   51 1
    55   28   52 1
    56   28   53 1
    57   28   54 1
@<TRIPOS>MOLECULE
CHEMBL407981
   59    62     0     0     0
SMALL
USER_CHARGES

@<TRIPOS>ATOM
      1 C1         -0.0074    1.6135    0.1460 C.3       1 <0>        -0.1889
      2 C2         -0.1080    0.0896    0.2377 C.3       1 <0>        -0.0098
      3 N1          0.7196   -0.3896    1.3528 N.4       1 <0>        -0.3874
      4 C3          2.1331   -0.1081    1.0693 C.3       1 <0>        -0.0062
      5 C4          2.9939   -0.5901    2.2391 C.3       1 <0>         0.0267
      6 N2          2.7927   -2.0334    2.4296 N.3       1 <0>        -0.5387
      7 C5          1.3775   -2.3333    2.6897 C.3       1 <0>         0.0205
      8 C6          0.5300   -1.8369    1.5162 C.3       1 <0>        -0.0023
      9 C7          3.6465   -2.5460    3.5095 C.3       1 <0>         0.0545
     10 C8          3.5992   -4.0753    3.5149 C.3       1 <0>        -0.1052
     11 C9          4.4884   -4.6091    4.6396 C.3       1 <0>        -0.1365
     12 C10         4.4418   -6.1154    4.6449 C.2       1 <0>         0.5074
     13 O1          3.7640   -6.7040    3.8292 O.2       1 <0>        -0.4836
     14 N3          5.1533   -6.8084    5.5559 N.am      1 <0>        -0.6344
     15 C11         5.1100   -8.2070    5.5608 C.2       1 <0>         0.3310
     16 C12         5.8189   -9.0904    6.4858 C.ar      1 <0>        -0.2326
     17 C13         6.6875   -8.8775    7.5635 C.ar      1 <0>         0.0419
     18 C14         7.1799   -9.9695    8.2252 C.ar      1 <0>        -0.1819
     19 C15         6.8060  -11.2534    7.8113 C.ar      1 <0>         0.2847
     20 N4          5.9837  -11.4346    6.7901 N.ar      1 <0>        -0.4836
     21 C16         5.4803  -10.4077    6.1174 C.ar      1 <0>         0.3490
     22 N5          4.6302  -10.3100    5.0487 N.pl3     1 <0>        -0.4794
     23 H1          4.2303  -11.0589    4.5795 H         1 <0>         0.4525
     24 N6          4.4244   -8.9613    4.7431 N.2       1 <0>        -0.2158
     25 C17         7.3420  -12.4332    8.5303 C.ar      1 <0>        -0.0835
     26 C18         7.3622  -12.4520    9.9247 C.ar      1 <0>        -0.0615
     27 C19         7.8615  -13.5510   10.5906 C.ar      1 <0>        -0.1490
     28 C20         8.3444  -14.6384    9.8745 C.ar      1 <0>         0.1329
     29 C21         8.3256  -14.6228    8.4860 C.ar      1 <0>        -0.1532
     30 C22         7.8220  -13.5294    7.8141 C.ar      1 <0>        -0.0501
     31 O2          8.8365  -15.7194   10.5336 O.3       1 <0>        -0.4981
     32 Br1         8.3573   -9.7456    9.6879 Br        1 <0>        -0.0092
     33 H2          1.0307    1.8996   -0.0229 H         1 <0>         0.0803
     34 H3         -0.6215    1.9690   -0.6814 H         1 <0>         0.1070
     35 H4         -0.3599    2.0575    1.0770 H         1 <0>         0.0796
     36 H5         -1.1461   -0.1966    0.4065 H         1 <0>         0.1306
     37 H6          0.2444   -0.3545   -0.6933 H         1 <0>         0.1302
     38 H7          2.4319   -0.6288    0.1596 H         1 <0>         0.1378
     39 H8          2.2701    0.9649    0.9354 H         1 <0>         0.1364
     40 H9          4.0442   -0.3948    2.0224 H         1 <0>         0.1237
     41 H10         2.7046   -0.0596    3.1463 H         1 <0>         0.0603
     42 H11         1.2485   -3.4098    2.8018 H         1 <0>         0.1273
     43 H12         1.0616   -1.8316    3.6043 H         1 <0>         0.0608
     44 H13        -0.5215   -2.0456    1.7136 H         1 <0>         0.1355
     45 H14         0.8370   -2.3488    0.6042 H         1 <0>         0.1381
     46 H15         4.6726   -2.2148    3.3497 H         1 <0>         0.0914
     47 H16         3.2877   -2.1681    4.4669 H         1 <0>         0.0491
     48 H17         2.5731   -4.4065    3.6747 H         1 <0>         0.0737
     49 H18         3.9580   -4.4532    2.5575 H         1 <0>         0.0871
     50 H19         5.5145   -4.2779    4.4798 H         1 <0>         0.1054
     51 H20         4.1296   -4.2312    5.5970 H         1 <0>         0.1019
     52 H21         5.6954   -6.3377    6.2082 H         1 <0>         0.4249
     53 H22         6.9619   -7.8773    7.8645 H         1 <0>         0.1518
     54 H23         6.9874  -11.6063   10.4822 H         1 <0>         0.1359
     55 H24         7.8774  -13.5661   11.6704 H         1 <0>         0.1368
     56 H25         8.7023  -15.4699    7.9319 H         1 <0>         0.1358
     57 H26         7.8032  -13.5199    6.7343 H         1 <0>         0.1325
     58 H27         8.1734  -16.3948   10.7315 H         1 <0>         0.3966
     59 H28         0.4466    0.0831    2.2014 H         1 <0>         0.4196
@<TRIPOS>BOND
     1    1    2 1
     2    1   33 1
     3    1   34 1
     4    1   35 1
     5    2    3 1
     6    2   36 1
     7    2   37 1
     8    3    8 1
     9    3    4 1
    10    3   59 1
    11    4    5 1
    12    4   38 1
    13    4   39 1
    14    5    6 1
    15    5   40 1
    16    5   41 1
    17    6    7 1
    18    6    9 1
    19    7    8 1
    20    7   42 1
    21    7   43 1
    22    8   44 1
    23    8   45 1
    24    9   10 1
    25    9   46 1
    26    9   47 1
    27   10   11 1
    28   10   48 1
    29   10   49 1
    30   11   12 1
    31   11   50 1
    32   11   51 1
    33   12   13 2
    34   12   14 am
    35   14   15 1
    36   14   52 1
    37   15   24 2
    38   15   16 1
    39   16   21 ar
    40   16   17 ar
    41   17   18 ar
    42   17   53 1
    43   18   19 ar
    44   18   32 1
    45   19   20 ar
    46   19   25 1
    47   20   21 ar
    48   21   22 1
    49   22   23 1
    50   22   24 1
    51   25   30 ar
    52   25   26 ar
    53   26   27 ar
    54   26   54 1
    55   27   28 ar
    56   27   55 1
    57   28   29 ar
    58   28   31 1
    59   29   30 ar
    60   29   56 1
    61   30   57 1
    62   31   58 1
@<TRIPOS>MOLECULE
CHEMBL407981
   59    62     0     0     0
SMALL
USER_CHARGES

@<TRIPOS>ATOM
      1 C1          0.0498    1.6662    0.1655 C.3       1 <0>        -0.1553
      2 C2         -0.0748    0.1430    0.2382 C.3       1 <0>         0.0498
      3 N1          0.7391   -0.3622    1.3520 N.3       1 <0>        -0.5402
      4 C3          2.1706   -0.1454    1.0990 C.3       1 <0>         0.0207
      5 C4          2.9778   -0.6299    2.3053 C.3       1 <0>        -0.0010
      6 N2          2.7134   -2.0572    2.5303 N.4       1 <0>        -0.3863
      7 C5          1.2842   -2.2546    2.8059 C.3       1 <0>        -0.0071
      8 C6          0.4629   -1.7836    1.6037 C.3       1 <0>         0.0252
      9 C7          3.5023   -2.5262    3.6773 C.3       1 <0>        -0.0086
     10 C8          3.3238   -4.0375    3.8353 C.3       1 <0>        -0.1374
     11 C9          4.1455   -4.5259    5.0300 C.3       1 <0>        -0.1340
     12 C10         3.9697   -6.0145    5.1856 C.2       1 <0>         0.5076
     13 O1          3.2573   -6.6247    4.4166 O.2       1 <0>        -0.4843
     14 N3          4.6041   -6.6678    6.1792 N.am      1 <0>        -0.6305
     15 C11         4.4408   -8.0499    6.3237 C.2       1 <0>         0.3274
     16 C12         5.0561   -8.8902    7.3504 C.ar      1 <0>        -0.2330
     17 C13         5.9220   -8.6416    8.4226 C.ar      1 <0>         0.0410
     18 C14         6.3080   -9.6974    9.2029 C.ar      1 <0>        -0.1807
     19 C15         5.8321  -10.9812    8.9110 C.ar      1 <0>         0.2872
     20 N4          5.0140  -11.1964    7.8930 N.ar      1 <0>        -0.4831
     21 C16         4.6117  -10.2054    7.1080 C.ar      1 <0>         0.3499
     22 N5          3.7908  -10.1467    6.0139 N.pl3     1 <0>        -0.4781
     23 H1          3.3358  -10.9036    5.6127 H         1 <0>         0.4535
     24 N6          3.7065   -8.8239    5.5691 N.2       1 <0>        -0.2142
     25 C17         6.2530  -12.1219    9.7583 C.ar      1 <0>        -0.0858
     26 C18         6.2487  -11.9994   11.1475 C.ar      1 <0>        -0.0610
     27 C19         6.6409  -13.0624   11.9329 C.ar      1 <0>        -0.1489
     28 C20         7.0403  -14.2540   11.3421 C.ar      1 <0>         0.1345
     29 C21         7.0457  -14.3791    9.9591 C.ar      1 <0>        -0.1532
     30 C22         6.6488  -13.3220    9.1682 C.ar      1 <0>        -0.0496
     31 O2          7.4270  -15.2992   12.1187 O.3       1 <0>        -0.4979
     32 Br1         7.4762   -9.4244   10.6646 Br        1 <0>        -0.0068
     33 H2          1.0932    1.9382    0.0057 H         1 <0>         0.0558
     34 H3         -0.5541    2.0411   -0.6609 H         1 <0>         0.0714
     35 H4         -0.3009    2.1045    1.0999 H         1 <0>         0.0690
     36 H5         -1.1181   -0.1289    0.3981 H         1 <0>         0.0889
     37 H6          0.2760   -0.2952   -0.6961 H         1 <0>         0.0462
     38 H7          2.4717   -0.7031    0.2122 H         1 <0>         0.0603
     39 H8          2.3551    0.9171    0.9409 H         1 <0>         0.1259
     40 H9          4.0408   -0.4831    2.1139 H         1 <0>         0.1359
     41 H10         2.6861   -0.0627    3.1892 H         1 <0>         0.1381
     42 H11         1.0916   -3.3123    2.9855 H         1 <0>         0.1380
     43 H12         1.0012   -1.6791    3.6872 H         1 <0>         0.1385
     44 H13        -0.5984   -1.9162    1.8138 H         1 <0>         0.1237
     45 H14         0.7359   -2.3683    0.7252 H         1 <0>         0.0606
     46 H15         4.5555   -2.3001    3.5107 H         1 <0>         0.1342
     47 H16         3.1616   -2.0235    4.5825 H         1 <0>         0.1337
     48 H17         2.2706   -4.2635    4.0020 H         1 <0>         0.0979
     49 H18         3.6645   -4.5402    2.9301 H         1 <0>         0.0974
     50 H19         5.1987   -4.2999    4.8633 H         1 <0>         0.1128
     51 H20         3.8048   -4.0233    5.9351 H         1 <0>         0.1129
     52 H21         5.1738   -6.1798    6.7941 H         1 <0>         0.4264
     53 H22         6.2763   -7.6423    8.6281 H         1 <0>         0.1519
     54 H23         5.9388  -11.0727   11.6076 H         1 <0>         0.1359
     55 H24         6.6378  -12.9682   13.0088 H         1 <0>         0.1373
     56 H25         7.3573  -15.3071    9.5026 H         1 <0>         0.1363
     57 H26         6.6486  -13.4215    8.0928 H         1 <0>         0.1324
     58 H27         6.7053  -15.8929   12.3670 H         1 <0>         0.3972
     59 H28         2.9726   -2.5808    1.7077 H         1 <0>         0.4216
@<TRIPOS>BOND
     1    1    2 1
     2    1   33 1
     3    1   34 1
     4    1   35 1
     5    2    3 1
     6    2   36 1
     7    2   37 1
     8    3    8 1
     9    3    4 1
    10    4    5 1
    11    4   38 1
    12    4   39 1
    13    5    6 1
    14    5   40 1
    15    5   41 1
    16    6    7 1
    17    6    9 1
    18    6   59 1
    19    7    8 1
    20    7   42 1
    21    7   43 1
    22    8   44 1
    23    8   45 1
    24    9   10 1
    25    9   46 1
    26    9   47 1
    27   10   11 1
    28   10   48 1
    29   10   49 1
    30   11   12 1
    31   11   50 1
    32   11   51 1
    33   12   13 2
    34   12   14 am
    35   14   15 1
    36   14   52 1
    37   15   24 2
    38   15   16 1
    39   16   21 ar
    40   16   17 ar
    41   17   18 ar
    42   17   53 1
    43   18   19 ar
    44   18   32 1
    45   19   20 ar
    46   19   25 1
    47   20   21 ar
    48   21   22 1
    49   22   23 1
    50   22   24 1
    51   25   30 ar
    52   25   26 ar
    53   26   27 ar
    54   26   54 1
    55   27   28 ar
    56   27   55 1
    57   28   29 ar
    58   28   31 1
    59   29   30 ar
    60   29   56 1
    61   30   57 1
    62   31   58 1
@<TRIPOS>MOLECULE
CHEMBL383104
   60    63     0     0     0
SMALL
USER_CHARGES

@<TRIPOS>ATOM
      1 C1         -0.0187    1.5258    0.0104 C.3       1 <0>        -0.1535
      2 C2          0.0021   -0.0041    0.0020 C.3       1 <0>        -0.1217
      3 C3         -1.4333   -0.5336    0.0129 C.3       1 <0>        -0.1327
      4 C4         -1.4126   -2.0635    0.0045 C.3       1 <0>         0.1361
      5 N1         -2.7870   -2.5706    0.0149 N.am      1 <0>        -0.7428
      6 C5         -3.0152   -3.8988    0.0099 C.2       1 <0>         0.7343
      7 O1         -2.0805   -4.6763   -0.0032 O.2       1 <0>        -0.5787
      8 N2         -4.2797   -4.3654    0.0195 N.am      1 <0>        -0.6318
      9 C6         -4.6876   -5.7736    0.0217 C.3       1 <0>         0.2225
     10 C7         -6.1941   -5.8156    0.0340 C.2       1 <0>        -0.3145
     11 C8         -6.6781   -4.5061    0.0390 C.2       1 <0>         0.0671
     12 N3         -7.9877   -4.5524    0.0503 N.2       1 <0>        -0.2506
     13 N4         -8.3822   -5.8959    0.0529 N.pl3     1 <0>        -0.4532
     14 H1         -9.2955   -6.2226    0.0603 H         1 <0>         0.4558
     15 C9         -7.2648   -6.6574    0.0428 C.2       1 <0>         0.3622
     16 N5         -7.2174   -8.0514    0.0411 N.am      1 <0>        -0.6481
     17 C10        -8.3610   -8.7645    0.0506 C.2       1 <0>         0.5180
     18 O2         -9.4314   -8.1942    0.0606 O.2       1 <0>        -0.5150
     19 C11        -8.3098  -10.2707    0.0488 C.3       1 <0>        -0.0852
     20 C12        -9.7126  -10.8210    0.0608 C.ar      1 <0>        -0.1406
     21 C13       -10.3463  -11.0687    1.2647 C.ar      1 <0>        -0.0510
     22 C14       -11.6318  -11.5730    1.2793 C.ar      1 <0>        -0.1946
     23 C15       -12.2884  -11.8315    0.0827 C.ar      1 <0>         0.2433
     24 C16       -11.6490  -11.5816   -1.1248 C.ar      1 <0>        -0.1953
     25 C17       -10.3654  -11.0719   -1.1322 C.ar      1 <0>        -0.0511
     26 N6        -13.5885  -12.3421    0.0938 N.pl3     1 <0>        -0.6364
     27 C18       -14.3798  -12.6452    1.2953 C.3       1 <0>         0.1122
     28 C19       -15.7357  -13.2090    0.8207 C.3       1 <0>        -0.1329
     29 C20       -15.4178  -13.7211   -0.6090 C.3       1 <0>        -0.1341
     30 C21       -14.3968  -12.6601   -1.0973 C.3       1 <0>         0.1104
     31 C22        -5.5043   -3.5595    0.0360 C.3       1 <0>         0.1948
     32 H2          1.0039    1.9031    0.0027 H         1 <0>         0.0564
     33 H3         -0.5459    1.8868   -0.8726 H         1 <0>         0.0546
     34 H4         -0.5289    1.8773    0.9072 H         1 <0>         0.0546
     35 H5          0.5123   -0.3556   -0.8948 H         1 <0>         0.0660
     36 H6          0.5293   -0.3651    0.8851 H         1 <0>         0.0660
     37 H7         -1.9435   -0.1821    0.9097 H         1 <0>         0.0698
     38 H8         -1.9605   -0.1726   -0.8702 H         1 <0>         0.0698
     39 H9         -0.9024   -2.4150   -0.8923 H         1 <0>         0.0685
     40 H10        -0.8854   -2.4246    0.8875 H         1 <0>         0.0685
     41 H11        -3.5327   -1.9503    0.0253 H         1 <0>         0.3976
     42 H12        -4.3116   -6.2684   -0.8738 H         1 <0>         0.0745
     43 H13        -4.2970   -6.2698    0.9102 H         1 <0>         0.0742
     44 H14        -6.3614   -8.5075    0.0331 H         1 <0>         0.4308
     45 H15        -7.7918  -10.6155   -0.8461 H         1 <0>         0.1103
     46 H16        -7.7760  -10.6171    0.9338 H         1 <0>         0.1103
     47 H17        -9.8351  -10.8678    2.1946 H         1 <0>         0.1191
     48 H18       -12.1260  -11.7666    2.2199 H         1 <0>         0.1193
     49 H19       -12.1565  -11.7818   -2.0569 H         1 <0>         0.1197
     50 H20        -9.8693  -10.8732   -2.0707 H         1 <0>         0.1193
     51 H21       -13.8618  -13.3875    1.9027 H         1 <0>         0.0617
     52 H22       -14.5387  -11.7352    1.8738 H         1 <0>         0.0612
     53 H23       -16.0576  -14.0298    1.4616 H         1 <0>         0.0827
     54 H24       -16.4905  -12.4233    0.7900 H         1 <0>         0.0766
     55 H25       -14.9695  -14.7142   -0.5777 H         1 <0>         0.0765
     56 H26       -16.3114  -13.7171   -1.2331 H         1 <0>         0.0841
     57 H27       -14.9135  -11.7692   -1.4541 H         1 <0>         0.0623
     58 H28       -13.7664  -13.0748   -1.8839 H         1 <0>         0.0715
     59 H29        -5.5257   -2.9387    0.9316 H         1 <0>         0.0907
     60 H30        -5.5434   -2.9290   -0.8522 H         1 <0>         0.0904
@<TRIPOS>BOND
     1    1    2 1
     2    1   32 1
     3    1   33 1
     4    1   34 1
     5    2    3 1
     6    2   35 1
     7    2   36 1
     8    3    4 1
     9    3   37 1
    10    3   38 1
    11    4    5 1
    12    4   39 1
    13    4   40 1
    14    5    6 am
    15    5   41 1
    16    6    7 2
    17    6    8 am
    18    8   31 1
    19    8    9 1
    20    9   10 1
    21    9   42 1
    22    9   43 1
    23   10   15 2
    24   10   11 1
    25   11   12 2
    26   11   31 1
    27   12   13 1
    28   13   14 1
    29   13   15 1
    30   15   16 1
    31   16   17 am
    32   16   44 1
    33   17   18 2
    34   17   19 1
    35   19   20 1
    36   19   45 1
    37   19   46 1
    38   20   25 ar
    39   20   21 ar
    40   21   22 ar
    41   21   47 1
    42   22   23 ar
    43   22   48 1
    44   23   24 ar
    45   23   26 1
    46   24   25 ar
    47   24   49 1
    48   25   50 1
    49   26   30 1
    50   26   27 1
    51   27   28 1
    52   27   51 1
    53   27   52 1
    54   28   29 1
    55   28   53 1
    56   28   54 1
    57   29   30 1
    58   29   55 1
    59   29   56 1
    60   30   57 1
    61   30   58 1
    62   31   59 1
    63   31   60 1
@<TRIPOS>MOLECULE
CHEMBL383104
   60    63     0     0     0
SMALL
USER_CHARGES

@<TRIPOS>ATOM
      1 C1         -0.0187    1.5258    0.0104 C.3       1 <0>        -0.1535
      2 C2          0.0021   -0.0041    0.0020 C.3       1 <0>        -0.1219
      3 C3         -1.4333   -0.5336    0.0129 C.3       1 <0>        -0.1322
      4 C4         -1.4126   -2.0635    0.0045 C.3       1 <0>         0.1355
      5 N1         -2.7870   -2.5706    0.0149 N.am      1 <0>        -0.7427
      6 C5         -3.0152   -3.8988    0.0099 C.2       1 <0>         0.7345
      7 O1         -2.0805   -4.6763   -0.0032 O.2       1 <0>        -0.5746
      8 N2         -4.2797   -4.3654    0.0195 N.am      1 <0>        -0.6317
      9 C6         -4.6987   -5.7717    0.0219 C.3       1 <0>         0.2115
     10 C7         -6.2064   -5.7953    0.0342 C.2       1 <0>        -0.2813
     11 C8         -6.6732   -4.5295    0.0389 C.2       1 <0>         0.0701
     12 N3         -8.0243   -4.5853    0.0499 N.pl3     1 <0>        -0.4437
     13 N4         -8.4023   -5.9334    0.0520 N.2       1 <0>        -0.2503
     14 H1         -8.6262   -3.8246    0.0556 H         1 <0>         0.4449
     15 C9         -7.3130   -6.6637    0.0426 C.2       1 <0>         0.3392
     16 N5         -7.2606   -8.0643    0.0407 N.am      1 <0>        -0.6441
     17 C10        -8.4018   -8.7813    0.0495 C.2       1 <0>         0.5040
     18 O2         -9.4741   -8.2145    0.0591 O.2       1 <0>        -0.4763
     19 C11        -8.3454  -10.2873    0.0475 C.3       1 <0>        -0.0863
     20 C12        -9.7464  -10.8424    0.0587 C.ar      1 <0>        -0.1341
     21 C13       -10.3798  -11.0924    1.2623 C.ar      1 <0>        -0.0518
     22 C14       -11.6637  -11.6011    1.2762 C.ar      1 <0>        -0.1945
     23 C15       -12.3188  -11.8616    0.0793 C.ar      1 <0>         0.2403
     24 C16       -11.6796  -11.6093   -1.1280 C.ar      1 <0>        -0.1951
     25 C17       -10.3978  -11.0952   -1.1346 C.ar      1 <0>        -0.0519
     26 N6        -13.6171  -12.3765    0.0897 N.pl3     1 <0>        -0.6374
     27 C18       -14.4080  -12.6825    1.2907 C.3       1 <0>         0.1129
     28 C19       -15.7617  -13.2508    0.8153 C.3       1 <0>        -0.1328
     29 C20       -15.4415  -13.7616   -0.6143 C.3       1 <0>        -0.1340
     30 C21       -14.4238  -12.6971   -1.1019 C.3       1 <0>         0.1111
     31 C22        -5.5116   -3.5682    0.0360 C.3       1 <0>         0.1818
     32 H2          1.0039    1.9031    0.0027 H         1 <0>         0.0569
     33 H3         -0.5459    1.8868   -0.8726 H         1 <0>         0.0545
     34 H4         -0.5289    1.8773    0.9072 H         1 <0>         0.0545
     35 H5          0.5123   -0.3556   -0.8948 H         1 <0>         0.0664
     36 H6          0.5293   -0.3651    0.8851 H         1 <0>         0.0664
     37 H7         -1.9435   -0.1821    0.9097 H         1 <0>         0.0694
     38 H8         -1.9605   -0.1726   -0.8702 H         1 <0>         0.0694
     39 H9         -0.9024   -2.4150   -0.8923 H         1 <0>         0.0692
     40 H10        -0.8854   -2.4246    0.8875 H         1 <0>         0.0692
     41 H11        -3.5327   -1.9503    0.0253 H         1 <0>         0.3965
     42 H12        -4.3281   -6.2698   -0.8740 H         1 <0>         0.0777
     43 H13        -4.3119   -6.2716    0.9099 H         1 <0>         0.0777
     44 H14        -6.4030   -8.5175    0.0331 H         1 <0>         0.4223
     45 H15        -7.8259  -10.6302   -0.8472 H         1 <0>         0.1047
     46 H16        -7.8109  -10.6320    0.9327 H         1 <0>         0.1047
     47 H17        -9.8698  -10.8899    2.1925 H         1 <0>         0.1187
     48 H18       -12.1576  -11.7964    2.2165 H         1 <0>         0.1181
     49 H19       -12.1860  -11.8110   -2.0603 H         1 <0>         0.1186
     50 H20        -9.9019  -10.8947   -2.0728 H         1 <0>         0.1188
     51 H21       -13.8878  -13.4231    1.8982 H         1 <0>         0.0610
     52 H22       -14.5703  -11.7732    1.8693 H         1 <0>         0.0606
     53 H23       -16.0812  -14.0728    1.4560 H         1 <0>         0.0820
     54 H24       -16.5192  -12.4677    0.7844 H         1 <0>         0.0761
     55 H25       -14.9899  -14.7532   -0.5829 H         1 <0>         0.0761
     56 H26       -16.3348  -13.7605   -1.2388 H         1 <0>         0.0834
     57 H27       -14.9433  -11.8078   -1.4589 H         1 <0>         0.0614
     58 H28       -13.7916  -13.1095   -1.8883 H         1 <0>         0.0710
     59 H29        -5.5393   -2.9484    0.9322 H         1 <0>         0.0898
     60 H30        -5.5570   -2.9387   -0.8526 H         1 <0>         0.0894
@<TRIPOS>BOND
     1    1    2 1
     2    1   32 1
     3    1   33 1
     4    1   34 1
     5    2    3 1
     6    2   35 1
     7    2   36 1
     8    3    4 1
     9    3   37 1
    10    3   38 1
    11    4    5 1
    12    4   39 1
    13    4   40 1
    14    5    6 am
    15    5   41 1
    16    6    7 2
    17    6    8 am
    18    8   31 1
    19    8    9 1
    20    9   42 1
    21    9   43 1
    22    9   10 1
    23   10   15 1
    24   10   11 2
    25   11   31 1
    26   11   12 1
    27   12   13 1
    28   12   14 1
    29   13   15 2
    30   15   16 1
    31   16   17 am
    32   16   44 1
    33   17   18 2
    34   17   19 1
    35   19   20 1
    36   19   45 1
    37   19   46 1
    38   20   25 ar
    39   20   21 ar
    40   21   22 ar
    41   21   47 1
    42   22   23 ar
    43   22   48 1
    44   23   24 ar
    45   23   26 1
    46   24   25 ar
    47   24   49 1
    48   25   50 1
    49   26   30 1
    50   26   27 1
    51   27   28 1
    52   27   51 1
    53   27   52 1
    54   28   29 1
    55   28   53 1
    56   28   54 1
    57   29   30 1
    58   29   55 1
    59   29   56 1
    60   30   57 1
    61   30   58 1
    62   31   59 1
    63   31   60 1
@<TRIPOS>MOLECULE
CHEMBL260231
   32    35     0     0     0
SMALL
USER_CHARGES

@<TRIPOS>ATOM
      1 C1         -0.0164    1.3546    0.0095 C.2       1 <0>        -0.1714
      2 C2          1.1761    2.0417    0.0018 C.2       1 <0>        -0.0881
      3 C3          2.3469    1.3290   -0.0132 C.2       1 <0>        -0.1585
      4 S1          1.7525   -0.3545   -0.0166 S.3       1 <0>         0.1227
      5 C4          0.0021   -0.0041    0.0020 C.2       1 <0>        -0.1687
      6 C5          3.7369    1.8244   -0.0245 C.ar      1 <0>         0.3233
      7 C6          4.7288    1.1058    0.6585 C.ar      1 <0>        -0.1861
      8 C7          6.0177    1.5623    0.6498 C.ar      1 <0>         0.0470
      9 C8          6.3000    2.7436   -0.0491 C.ar      1 <0>        -0.2298
     10 C9          5.2603    3.4213   -0.7164 C.ar      1 <0>         0.3516
     11 N1          4.0252    2.9372   -0.6846 N.ar      1 <0>        -0.4812
     12 N2          5.8226    4.5236   -1.3019 N.pl3     1 <0>        -0.4783
     13 H1          5.3463    5.1821   -1.8315 H         1 <0>         0.4522
     14 N3          7.1910    4.5517   -1.0164 N.2       1 <0>        -0.2149
     15 C10         7.5162    3.5217   -0.2807 C.2       1 <0>         0.3364
     16 N4          8.7954    3.2189    0.1987 N.am      1 <0>        -0.6311
     17 C11         9.8332    4.0280   -0.0924 C.2       1 <0>         0.5380
     18 O1          9.6583    5.0187   -0.7700 O.2       1 <0>        -0.4820
     19 C12        11.2109    3.7018    0.4239 C.3       1 <0>        -0.1968
     20 C13        11.8035    4.6269    1.4887 C.3       1 <0>        -0.1491
     21 C14        12.3471    4.6593    0.0589 C.3       1 <0>        -0.1428
     22 Br1         4.2870   -0.4823    1.5851 Br        1 <0>        -0.0012
     23 H2         -0.9550    1.8886    0.0258 H         1 <0>         0.1381
     24 H3          1.1891    3.1216    0.0071 H         1 <0>         0.1392
     25 H4         -0.8285   -0.6944    0.0062 H         1 <0>         0.1894
     26 H5          6.7984    1.0261    1.1689 H         1 <0>         0.1545
     27 H6          8.9353    2.4266    0.7406 H         1 <0>         0.4253
     28 H7         11.4490    2.6402    0.4899 H         1 <0>         0.1316
     29 H8         11.1970    5.4714    1.8159 H         1 <0>         0.1018
     30 H9         12.4317    4.1739    2.2558 H         1 <0>         0.1100
     31 H10        13.3328    4.2277   -0.1147 H         1 <0>         0.1087
     32 H11        12.0981    5.5252   -0.5546 H         1 <0>         0.1104
@<TRIPOS>BOND
     1    1    5 2
     2    1    2 1
     3    1   23 1
     4    2    3 2
     5    2   24 1
     6    3    4 1
     7    3    6 1
     8    4    5 1
     9    5   25 1
    10    6   11 ar
    11    6    7 ar
    12    7    8 ar
    13    7   22 1
    14    8    9 ar
    15    8   26 1
    16    9   15 1
    17    9   10 ar
    18   10   11 ar
    19   10   12 1
    20   12   13 1
    21   12   14 1
    22   14   15 2
    23   15   16 1
    24   16   17 am
    25   16   27 1
    26   17   18 2
    27   17   19 1
    28   19   21 1
    29   19   20 1
    30   19   28 1
    31   20   21 1
    32   20   29 1
    33   20   30 1
    34   21   31 1
    35   21   32 1
@<TRIPOS>MOLECULE
CHEMBL1164264
   49    53     0     0     0
SMALL
USER_CHARGES

@<TRIPOS>ATOM
      1 C1         -0.0184    1.5028    0.0103 C.3       1 <0>        -0.0951
      2 C2          0.0021   -0.0041    0.0020 C.2       1 <0>         0.1027
      3 C3         -1.0767   -0.8104    0.0026 C.2       1 <0>        -0.2858
      4 C4         -0.6269   -2.1430   -0.0073 C.2       1 <0>         0.0977
      5 N1          0.6760   -2.1297   -0.0134 N.2       1 <0>        -0.3152
      6 O1          1.0981   -0.7779   -0.0131 O.3       1 <0>        -0.0796
      7 C5         -2.5157   -0.3627    0.0125 C.3       1 <0>         0.1963
      8 N2         -2.9175    0.0196   -1.3435 N.am      1 <0>        -0.7252
      9 C6         -4.1712    0.4556   -1.5771 C.2       1 <0>         0.5644
     10 O2         -4.9688    0.5316   -0.6624 O.2       1 <0>        -0.5366
     11 C7         -4.5759    0.8405   -2.9425 C.ar      1 <0>        -0.1214
     12 C8         -3.6551    0.7462   -3.9965 C.ar      1 <0>        -0.1153
     13 C9         -4.0160    1.0982   -5.2607 C.ar      1 <0>        -0.0732
     14 C10        -5.3157    1.5586   -5.5170 C.ar      1 <0>        -0.0787
     15 C11        -5.9775    1.9900   -6.6915 C.2       1 <0>        -0.1608
     16 C12        -7.2476    2.3294   -6.3520 C.2       1 <0>         0.1608
     17 N3         -7.4262    2.1320   -5.0031 N.pl3     1 <0>        -0.5666
     18 H1         -8.2454    2.2993   -4.5114 H         1 <0>         0.4217
     19 C13        -6.2480    1.6563   -4.4640 C.ar      1 <0>         0.0911
     20 C14        -5.8730    1.2910   -3.1808 C.ar      1 <0>        -0.0509
     21 C15        -8.2765    2.8321   -7.2858 C.2       1 <0>         0.1392
     22 C16        -9.7141    2.5632   -7.2243 C.2       1 <0>        -0.1924
     23 C17       -10.2816    3.2217   -8.2741 C.2       1 <0>         0.0826
     24 N4         -9.3036    3.8560   -8.9500 N.pl3     1 <0>        -0.4679
     25 H2         -9.4324    4.4005   -9.7424 H         1 <0>         0.4465
     26 N5         -8.0748    3.6121   -8.3285 N.2       1 <0>        -0.2534
     27 C18       -10.4172    1.7342   -6.2150 C.ar      1 <0>        -0.0142
     28 C19        -9.9533    0.4547   -5.9149 C.ar      1 <0>        -0.1070
     29 C20       -10.6111   -0.3120   -4.9746 C.ar      1 <0>        -0.1151
     30 C21       -11.7291    0.1870   -4.3309 C.ar      1 <0>        -0.1187
     31 C22       -12.1939    1.4562   -4.6247 C.ar      1 <0>        -0.1165
     32 C23       -11.5407    2.2340   -5.5591 C.ar      1 <0>        -0.1122
     33 H3          1.0042    1.8801    0.0026 H         1 <0>         0.0888
     34 H4         -0.5455    1.8639   -0.8728 H         1 <0>         0.0987
     35 H5         -0.5286    1.8543    0.9071 H         1 <0>         0.1004
     36 H6         -1.2522   -3.0235   -0.0090 H         1 <0>         0.2015
     37 H7         -3.1477   -1.1790    0.3622 H         1 <0>         0.0830
     38 H8         -2.6254    0.4929    0.6788 H         1 <0>         0.0816
     39 H9         -2.2812   -0.0410   -2.0731 H         1 <0>         0.4014
     40 H10        -2.6532    0.3922   -3.8035 H         1 <0>         0.1241
     41 H11        -3.3011    1.0234   -6.0667 H         1 <0>         0.1308
     42 H12        -5.5486    2.0402   -7.6814 H         1 <0>         0.1520
     43 H13        -6.5815    1.3590   -2.3685 H         1 <0>         0.1360
     44 H14       -11.3329    3.2331   -8.5213 H         1 <0>         0.1860
     45 H15        -9.0809    0.0638   -6.4175 H         1 <0>         0.1210
     46 H16       -10.2525   -1.3037   -4.7413 H         1 <0>         0.1238
     47 H17       -12.2412   -0.4168   -3.5963 H         1 <0>         0.1231
     48 H18       -13.0675    1.8407   -4.1193 H         1 <0>         0.1244
     49 H19       -11.9020    3.2264   -5.7848 H         1 <0>         0.1224
@<TRIPOS>BOND
     1    1    2 1
     2    1   33 1
     3    1   34 1
     4    1   35 1
     5    2    6 1
     6    2    3 2
     7    3    4 1
     8    3    7 1
     9    4    5 2
    10    4   36 1
    11    5    6 1
    12    7    8 1
    13    7   37 1
    14    7   38 1
    15    8    9 am
    16    8   39 1
    17    9   10 2
    18    9   11 1
    19   11   20 ar
    20   11   12 ar
    21   12   13 ar
    22   12   40 1
    23   13   14 ar
    24   13   41 1
    25   14   19 ar
    26   14   15 1
    27   15   16 2
    28   15   42 1
    29   16   17 1
    30   16   21 1
    31   17   18 1
    32   17   19 1
    33   19   20 ar
    34   20   43 1
    35   21   26 2
    36   21   22 1
    37   22   23 2
    38   22   27 1
    39   23   24 1
    40   23   44 1
    41   24   25 1
    42   24   26 1
    43   27   32 ar
    44   27   28 ar
    45   28   29 ar
    46   28   45 1
    47   29   30 ar
    48   29   46 1
    49   30   31 ar
    50   30   47 1
    51   31   32 ar
    52   31   48 1
    53   32   49 1
@<TRIPOS>MOLECULE
CHEMBL1164264
   49    53     0     0     0
SMALL
USER_CHARGES

@<TRIPOS>ATOM
      1 C1         -0.8972    3.2277    1.0708 C.3       1 <0>        -0.0952
      2 C2         -0.7198    1.7377    1.2099 C.2       1 <0>         0.1028
      3 C3         -1.7017    0.8166    1.1718 C.2       1 <0>        -0.2862
      4 C4         -1.1182   -0.4521    1.3389 C.2       1 <0>         0.0976
      5 N1          0.1680   -0.2911    1.4721 N.2       1 <0>        -0.3147
      6 O1          0.4447    1.0953    1.3878 O.3       1 <0>        -0.0794
      7 C5         -3.1704    1.0967    0.9833 C.3       1 <0>         0.1962
      8 N2         -3.4473    1.3156   -0.4386 N.am      1 <0>        -0.7246
      9 C6         -4.7031    1.5847   -0.8470 C.2       1 <0>         0.5635
     10 O2         -5.6065    1.6459   -0.0352 O.2       1 <0>        -0.5351
     11 C7         -4.9819    1.8051   -2.2787 C.ar      1 <0>        -0.1181
     12 C8         -3.9385    1.7281   -3.2132 C.ar      1 <0>        -0.1135
     13 C9         -4.1823    1.9298   -4.5368 C.ar      1 <0>        -0.0739
     14 C10        -5.4839    2.2164   -4.9752 C.ar      1 <0>        -0.0781
     15 C11        -6.0421    2.4693   -6.2499 C.2       1 <0>        -0.1724
     16 C12        -7.3749    2.6899   -6.0844 C.2       1 <0>         0.1406
     17 N3         -7.6892    2.5869   -4.7480 N.pl3     1 <0>        -0.5614
     18 H1         -8.5732    2.7003   -4.3651 H         1 <0>         0.4237
     19 C13        -6.5390    2.2953   -4.0429 C.ar      1 <0>         0.0930
     20 C14        -6.2818    2.0833   -2.6977 C.ar      1 <0>        -0.0509
     21 C15        -8.3285    2.9911   -7.1627 C.2       1 <0>         0.1459
     22 C16        -9.6230    2.4958   -7.2863 C.2       1 <0>        -0.1746
     23 C17       -10.1690    3.0439   -8.4595 C.2       1 <0>         0.0696
     24 N4         -9.2744    3.8182   -9.0138 N.2       1 <0>        -0.2711
     25 H2         -7.3010    4.3092   -8.4142 H         1 <0>         0.4454
     26 N5         -8.1148    3.8145   -8.2301 N.pl3     1 <0>        -0.4542
     27 C18       -10.2997    1.5630   -6.3544 C.ar      1 <0>        -0.0184
     28 C19        -9.7125    0.3377   -6.0412 C.ar      1 <0>        -0.1037
     29 C20       -10.3471   -0.5265   -5.1726 C.ar      1 <0>        -0.1166
     30 C21       -11.5635   -0.1792   -4.6127 C.ar      1 <0>        -0.1174
     31 C22       -12.1513    1.0349   -4.9199 C.ar      1 <0>        -0.1174
     32 C23       -11.5234    1.9097   -5.7828 C.ar      1 <0>        -0.1088
     33 H3          0.0746    3.7170    1.1371 H         1 <0>         0.0890
     34 H4         -1.3513    3.4510    0.1053 H         1 <0>         0.0983
     35 H5         -1.5431    3.5929    1.8692 H         1 <0>         0.1006
     36 H6         -1.6443   -1.3952    1.3546 H         1 <0>         0.2017
     37 H7         -3.7513    0.2461    1.3398 H         1 <0>         0.0835
     38 H8         -3.4459    1.9872    1.5483 H         1 <0>         0.0820
     39 H9         -2.7267    1.2668   -1.0861 H         1 <0>         0.4013
     40 H10        -2.9351    1.5077   -2.8800 H         1 <0>         0.1254
     41 H11        -3.3735    1.8695   -5.2499 H         1 <0>         0.1314
     42 H12        -5.5062    2.4852   -7.1874 H         1 <0>         0.1508
     43 H13        -7.0842    2.1377   -1.9769 H         1 <0>         0.1374
     44 H14       -11.1623    2.8561   -8.8397 H         1 <0>         0.1916
     45 H15        -8.7630    0.0654   -6.4780 H         1 <0>         0.1197
     46 H16        -9.8934   -1.4759   -4.9295 H         1 <0>         0.1231
     47 H17       -12.0565   -0.8588   -3.9333 H         1 <0>         0.1228
     48 H18       -13.1014    1.3003   -4.4804 H         1 <0>         0.1247
     49 H19       -11.9808    2.8593   -6.0182 H         1 <0>         0.1241
@<TRIPOS>BOND
     1    1    2 1
     2    1   33 1
     3    1   34 1
     4    1   35 1
     5    2    6 1
     6    2    3 2
     7    3    4 1
     8    3    7 1
     9    4    5 2
    10    4   36 1
    11    5    6 1
    12    7    8 1
    13    7   37 1
    14    7   38 1
    15    8    9 am
    16    8   39 1
    17    9   10 2
    18    9   11 1
    19   11   20 ar
    20   11   12 ar
    21   12   13 ar
    22   12   40 1
    23   13   14 ar
    24   13   41 1
    25   14   19 ar
    26   14   15 1
    27   15   16 2
    28   15   42 1
    29   16   17 1
    30   16   21 1
    31   17   18 1
    32   17   19 1
    33   19   20 ar
    34   20   43 1
    35   21   22 2
    36   21   26 1
    37   22   23 1
    38   22   27 1
    39   23   24 2
    40   23   44 1
    41   24   26 1
    42   25   26 1
    43   27   32 ar
    44   27   28 ar
    45   28   29 ar
    46   28   45 1
    47   29   30 ar
    48   29   46 1
    49   30   31 ar
    50   30   47 1
    51   31   32 ar
    52   31   48 1
    53   32   49 1
@<TRIPOS>MOLECULE
CHEMBL551258
   48    53     0     0     0
SMALL
USER_CHARGES

@<TRIPOS>ATOM
      1 C1         -0.0167    1.3830    0.0096 C.ar      1 <0>        -0.1329
      2 C2          1.1706    2.0890    0.0021 C.ar      1 <0>        -0.0674
      3 C3          2.3781    1.4136   -0.0131 C.ar      1 <0>        -0.0692
      4 C4          2.3989    0.0301   -0.0211 C.ar      1 <0>        -0.0664
      5 C5          1.2137   -0.6794   -0.0141 C.ar      1 <0>        -0.1963
      6 C6          0.0021   -0.0041    0.0020 C.ar      1 <0>         0.1347
      7 O1         -1.1651   -0.7005    0.0099 O.3       1 <0>        -0.3041
      8 C7         -1.0700   -2.1263    0.0013 C.3       1 <0>         0.1491
      9 C8         -2.4541   -2.7222    0.0118 C.2       1 <0>         0.2358
     10 N1         -3.1497   -3.0257    1.0725 N.2       1 <0>        -0.2183
     11 N2         -4.2897   -3.5143    0.7259 N.2       1 <0>        -0.2098
     12 C9         -4.3689   -3.5430   -0.5702 C.2       1 <0>         0.1063
     13 N3         -3.2092   -3.0366   -1.0981 N.pl3     1 <0>        -0.3366
     14 N4         -3.1258   -2.9883   -2.4834 N.2       1 <0>        -0.2396
     15 C10        -4.1124   -3.4058   -3.2361 C.2       1 <0>         0.0469
     16 S1         -5.3090   -3.9411   -2.0228 S.3       1 <0>         0.2469
     17 S2         -4.2269   -3.4392   -4.9940 S.3       1 <0>         0.2189
     18 S3         -2.4363   -2.6636   -5.6224 S.3       1 <0>         0.2188
     19 C11        -1.3488   -4.0500   -5.6253 C.2       1 <0>         0.0468
     20 N5         -1.6023   -5.2953   -5.3105 N.2       1 <0>        -0.2395
     21 N6         -0.6122   -6.2672   -5.3717 N.pl3     1 <0>        -0.3367
     22 C12        -0.4490   -7.6170   -5.1429 C.2       1 <0>         0.2359
     23 N7          0.7920   -7.9232   -5.4019 N.2       1 <0>        -0.2184
     24 N8          1.4348   -6.8729   -5.7788 N.2       1 <0>        -0.2098
     25 C13         0.6307   -5.8528   -5.7759 C.2       1 <0>         0.1062
     26 S4          0.3806   -4.1192   -6.0661 S.3       1 <0>         0.2470
     27 C14        -1.5173   -8.5713   -4.6746 C.3       1 <0>         0.1491
     28 O2         -2.1864   -9.1300   -5.8069 O.3       1 <0>        -0.3041
     29 C15        -3.1854  -10.0173   -5.5575 C.ar      1 <0>         0.1347
     30 C16        -3.5183  -10.3387   -4.2497 C.ar      1 <0>        -0.1963
     31 C17        -4.5343  -11.2403   -3.9982 C.ar      1 <0>        -0.0664
     32 C18        -5.2197  -11.8227   -5.0497 C.ar      1 <0>        -0.0692
     33 C19        -4.8891  -11.5033   -6.3547 C.ar      1 <0>        -0.0674
     34 C20        -3.8773  -10.5982   -6.6102 C.ar      1 <0>        -0.1329
     35 Cl1        -6.4957  -12.9558   -4.7310 Cl        1 <0>        -0.0649
     36 Cl2         3.8689    2.3031   -0.0225 Cl        1 <0>        -0.0649
     37 H1         -0.9590    1.9105    0.0260 H         1 <0>         0.1421
     38 H2          1.1564    3.1689    0.0077 H         1 <0>         0.1437
     39 H3          3.3424   -0.4953   -0.0333 H         1 <0>         0.1393
     40 H4          1.2303   -1.7593   -0.0211 H         1 <0>         0.1367
     41 H5         -0.5419   -2.4498   -0.8957 H         1 <0>         0.0928
     42 H6         -0.5243   -2.4593    0.8841 H         1 <0>         0.1123
     43 H7         -1.0601   -9.3708   -4.0917 H         1 <0>         0.1123
     44 H8         -2.2367   -8.0357   -4.0552 H         1 <0>         0.0928
     45 H9         -2.9833   -9.8846   -3.4288 H         1 <0>         0.1367
     46 H10        -4.7935  -11.4911   -2.9802 H         1 <0>         0.1393
     47 H11        -5.4250  -11.9592   -7.1742 H         1 <0>         0.1437
     48 H12        -3.6223  -10.3461   -7.6290 H         1 <0>         0.1421
@<TRIPOS>BOND
     1    1    6 ar
     2    1    2 ar
     3    1   37 1
     4    2    3 ar
     5    2   38 1
     6    3    4 ar
     7    3   36 1
     8    4    5 ar
     9    4   39 1
    10    5    6 ar
    11    5   40 1
    12    6    7 1
    13    7    8 1
    14    8    9 1
    15    8   41 1
    16    8   42 1
    17    9   13 1
    18    9   10 2
    19   10   11 1
    20   11   12 2
    21   12   16 1
    22   12   13 1
    23   13   14 1
    24   14   15 2
    25   15   16 1
    26   15   17 1
    27   17   18 1
    28   18   19 1
    29   19   26 1
    30   19   20 2
    31   20   21 1
    32   21   25 1
    33   21   22 1
    34   22   23 2
    35   22   27 1
    36   23   24 1
    37   24   25 2
    38   25   26 1
    39   27   28 1
    40   27   43 1
    41   27   44 1
    42   28   29 1
    43   29   34 ar
    44   29   30 ar
    45   30   31 ar
    46   30   45 1
    47   31   32 ar
    48   31   46 1
    49   32   33 ar
    50   32   35 1
    51   33   34 ar
    52   33   47 1
    53   34   48 1
@<TRIPOS>MOLECULE
CHEMBL559301
   36    39     0     0     0
SMALL
USER_CHARGES

@<TRIPOS>ATOM
      1 C1         -0.0167    1.3830    0.0096 C.ar      1 <0>        -0.1341
      2 C2          1.1706    2.0890    0.0021 C.ar      1 <0>        -0.0682
      3 C3          2.3781    1.4136   -0.0135 C.ar      1 <0>        -0.0706
      4 C4          2.3989    0.0301   -0.0211 C.ar      1 <0>        -0.0666
      5 C5          1.2137   -0.6795   -0.0136 C.ar      1 <0>        -0.1961
      6 C6          0.0021   -0.0041    0.0020 C.ar      1 <0>         0.1370
      7 O1         -1.1651   -0.7005    0.0099 O.3       1 <0>        -0.3043
      8 C7         -1.0700   -2.1263    0.0013 C.3       1 <0>         0.1499
      9 C8         -2.4541   -2.7222    0.0118 C.2       1 <0>         0.2344
     10 N1         -3.1493   -3.0255    1.0718 N.2       1 <0>        -0.2241
     11 N2         -4.2893   -3.5150    0.7265 N.2       1 <0>        -0.2164
     12 C9         -4.3706   -3.5451   -0.5690 C.2       1 <0>         0.1147
     13 N3         -3.2099   -3.0369   -1.0989 N.pl3     1 <0>        -0.3409
     14 N4         -3.1311   -2.9896   -2.4843 N.2       1 <0>        -0.2549
     15 C10        -4.1093   -3.4035   -3.2333 C.2       1 <0>         0.1412
     16 S1         -5.3076   -3.9430   -2.0235 S.3       1 <0>         0.1639
     17 C11        -4.2044   -3.4300   -4.7370 C.3       1 <0>         0.0011
     18 C12        -2.9148   -2.8690   -5.3396 C.3       1 <0>        -0.1341
     19 C13        -2.9121   -2.9879   -6.8595 C.2       1 <0>         0.5469
     20 N5         -2.8624   -1.8252   -7.4588 N.2       1 <0>        -0.6912
     21 C14        -2.8190   -0.6665   -6.8275 C.2       1 <0>         0.4786
     22 S2         -2.8419   -1.0368   -5.1858 S.3       1 <0>        -0.0604
     23 N6         -2.7657    0.5749   -7.3899 N.pl3     1 <0>        -0.7560
     24 O2         -2.9522   -4.0488   -7.4516 O.2       1 <0>        -0.4497
     25 Cl1         3.8689    2.3031   -0.0241 Cl        1 <0>        -0.0665
     26 H1         -0.9590    1.9105    0.0260 H         1 <0>         0.1415
     27 H2          1.1564    3.1689    0.0080 H         1 <0>         0.1427
     28 H3          3.3424   -0.4953   -0.0333 H         1 <0>         0.1389
     29 H4          1.2303   -1.7593   -0.0203 H         1 <0>         0.1381
     30 H5         -0.5419   -2.4498   -0.8957 H         1 <0>         0.0946
     31 H6         -0.5243   -2.4593    0.8841 H         1 <0>         0.1107
     32 H7         -4.3463   -4.4568   -5.0741 H         1 <0>         0.1489
     33 H8         -5.0501   -2.8220   -5.0583 H         1 <0>         0.1323
     34 H9         -2.7569    0.6701   -8.3552 H         1 <0>         0.4264
     35 H10        -2.7365    1.3626   -6.8246 H         1 <0>         0.4306
     36 H11        -2.0358   -3.3417   -4.9014 H         1 <0>         0.1618
@<TRIPOS>BOND
     1    1    6 ar
     2    1    2 ar
     3    1   26 1
     4    2    3 ar
     5    2   27 1
     6    3    4 ar
     7    3   25 1
     8    4    5 ar
     9    4   28 1
    10    5    6 ar
    11    5   29 1
    12    6    7 1
    13    7    8 1
    14    8    9 1
    15    8   30 1
    16    8   31 1
    17    9   13 1
    18    9   10 2
    19   10   11 1
    20   11   12 2
    21   12   16 1
    22   12   13 1
    23   13   14 1
    24   14   15 2
    25   15   16 1
    26   15   17 1
    27   17   32 1
    28   17   33 1
    29   17   18 1
    30   18   19 1
    31   18   36 1
    32   18   22 1
    33   19   20 1
    34   19   24 2
    35   20   21 2
    36   21   22 1
    37   21   23 1
    38   23   34 1
    39   23   35 1
@<TRIPOS>MOLECULE
CHEMBL390918
   27    28     0     0     0
SMALL
USER_CHARGES

@<TRIPOS>ATOM
      1 C1         -0.0184    1.5028    0.0103 C.3       1 <0>        -0.1667
      2 C2          0.0021   -0.0041    0.0020 C.2       1 <0>         0.5125
      3 O1          1.0605   -0.5961   -0.0113 O.2       1 <0>        -0.5036
      4 N1         -1.1558   -0.6938    0.0094 N.am      1 <0>        -0.6141
      5 C3         -1.1370   -2.0836    0.0017 C.2       1 <0>         0.2504
      6 N2         -2.1564   -2.9150    0.0016 N.2       1 <0>        -0.5373
      7 C4         -1.9710   -4.2220   -0.0063 C.2       1 <0>         0.0824
      8 C5         -0.6888   -4.6624   -0.0142 C.2       1 <0>        -0.2658
      9 S1          0.1956   -3.1114   -0.0171 S.3       1 <0>         0.2331
     10 C6         -3.1328   -5.1818   -0.0059 C.3       1 <0>         0.0387
     11 C7         -4.0339   -4.8793    1.1635 C.2       1 <0>         0.2948
     12 N3         -3.8490   -3.9389    2.0332 N.2       1 <0>        -0.2391
     13 N4         -4.9023   -3.9857    2.9569 N.pl3     1 <0>        -0.4665
     14 C8         -5.7145   -4.9983    2.5883 C.2       1 <0>         0.4465
     15 N5         -5.1888   -5.5526    1.4774 N.pl3     1 <0>        -0.3334
     16 N6         -5.7138   -6.6062    0.7843 N.3       1 <0>        -0.5686
     17 S2         -7.1518   -5.4848    3.3810 S.2       1 <0>        -0.5753
     18 H1          1.0042    1.8801    0.0026 H         1 <0>         0.1064
     19 H2         -0.5455    1.8639   -0.8728 H         1 <0>         0.0993
     20 H3         -0.5286    1.8543    0.9071 H         1 <0>         0.0992
     21 H4         -2.0023   -0.2203    0.0200 H         1 <0>         0.4260
     22 H5         -0.3076   -5.6728   -0.0209 H         1 <0>         0.1993
     23 H6         -3.6937   -5.0736   -0.9343 H         1 <0>         0.1173
     24 H7         -2.7606   -6.2029    0.0768 H         1 <0>         0.1290
     25 H8         -6.5685   -6.9301    1.2115 H         1 <0>         0.3970
     26 H9         -5.8626   -6.3640   -0.1838 H         1 <0>         0.3671
     27 H10        -5.0244   -3.3992    3.7198 H         1 <0>         0.4712
@<TRIPOS>BOND
     1    1    2 1
     2    1   18 1
     3    1   19 1
     4    1   20 1
     5    2    3 2
     6    2    4 am
     7    4    5 1
     8    4   21 1
     9    5    9 1
    10    5    6 2
    11    6    7 1
    12    7    8 2
    13    7   10 1
    14    8    9 1
    15    8   22 1
    16   10   11 1
    17   10   23 1
    18   10   24 1
    19   11   15 1
    20   11   12 2
    21   12   13 1
    22   13   14 1
    23   13   27 1
    24   14   15 1
    25   14   17 2
    26   15   16 1
    27   16   25 1
    28   16   26 1
@<TRIPOS>MOLECULE
CHEMBL390918
   26    27     0     0     0
SMALL
USER_CHARGES

@<TRIPOS>ATOM
      1 C1         -0.0184    1.5028    0.0103 C.3       1 <0>        -0.1654
      2 C2          0.0021   -0.0041    0.0020 C.2       1 <0>         0.5108
      3 O1          1.0605   -0.5961   -0.0113 O.2       1 <0>        -0.5107
      4 N1         -1.1558   -0.6938    0.0094 N.am      1 <0>        -0.6116
      5 C3         -1.1370   -2.0836    0.0017 C.2       1 <0>         0.2420
      6 N2         -2.1564   -2.9150    0.0016 N.2       1 <0>        -0.5201
      7 C4         -1.9710   -4.2220   -0.0063 C.2       1 <0>         0.1047
      8 C5         -0.6888   -4.6624   -0.0142 C.2       1 <0>        -0.2727
      9 S1          0.1956   -3.1114   -0.0171 S.3       1 <0>         0.1904
     10 C6         -3.1328   -5.1818   -0.0059 C.3       1 <0>         0.0599
     11 C7         -4.0339   -4.8793    1.1635 C.2       1 <0>         0.1622
     12 N3         -3.9420   -5.3859    2.3604 N.2       1 <0>        -0.2980
     13 N4         -4.8691   -4.9108    3.1131 N.2       1 <0>        -0.3353
     14 C8         -5.6092   -4.0680    2.4309 C.2       1 <0>         0.3368
     15 N5         -5.0960   -4.0178    1.1666 N.pl3     1 <0>        -0.3251
     16 N6         -5.5508   -3.2654    0.1211 N.3       1 <0>        -0.5733
     17 S2         -6.9980   -3.1670    3.0344 S.3       1 <0>        -0.8218
     18 H1          1.0042    1.8801    0.0026 H         1 <0>         0.1025
     19 H2         -0.5455    1.8639   -0.8728 H         1 <0>         0.0968
     20 H3         -0.5286    1.8543    0.9071 H         1 <0>         0.0977
     21 H4         -2.0023   -0.2203    0.0200 H         1 <0>         0.4254
     22 H5         -0.3076   -5.6728   -0.0209 H         1 <0>         0.1956
     23 H6         -3.6937   -5.0736   -0.9343 H         1 <0>         0.0926
     24 H7         -2.7606   -6.2029    0.0768 H         1 <0>         0.1041
     25 H8         -6.2425   -3.7696   -0.4133 H         1 <0>         0.3409
     26 H9         -5.9163   -2.3819    0.4434 H         1 <0>         0.3716
@<TRIPOS>BOND
     1    1    2 1
     2    1   18 1
     3    1   19 1
     4    1   20 1
     5    2    3 2
     6    2    4 am
     7    4    5 1
     8    4   21 1
     9    5    9 1
    10    5    6 2
    11    6    7 1
    12    7    8 2
    13    7   10 1
    14    8    9 1
    15    8   22 1
    16   10   11 1
    17   10   23 1
    18   10   24 1
    19   11   15 1
    20   11   12 2
    21   12   13 1
    22   13   14 2
    23   14   15 1
    24   14   17 1
    25   15   16 1
    26   16   25 1
    27   16   26 1
@<TRIPOS>MOLECULE
CHEMBL1094402
   53    57     0     0     0
SMALL
USER_CHARGES

@<TRIPOS>ATOM
      1 C1          0.0102    1.3332   -0.6532 C.ar      1 <0>        -0.1372
      2 C2          1.0019    1.9259    0.1067 C.ar      1 <0>        -0.0987
      3 C3          2.2003    1.2710    0.3128 C.ar      1 <0>        -0.1491
      4 C4          2.4086    0.0156   -0.2438 C.ar      1 <0>         0.1627
      5 C5          1.4102   -0.5771   -1.0062 C.ar      1 <0>        -0.1144
      6 C6          0.2143    0.0834   -1.2087 C.ar      1 <0>        -0.0996
      7 N1          3.6207   -0.6499   -0.0375 N.pl3     1 <0>        -0.6370
      8 C7          3.6446   -2.0317    0.0595 C.ar      1 <0>         0.5630
      9 N2          2.4999   -2.6999    0.0608 N.ar      1 <0>        -0.5504
     10 C8          2.4711   -4.0197    0.1678 C.ar      1 <0>         0.1979
     11 C9          3.6630   -4.7124    0.2701 C.ar      1 <0>        -0.2152
     12 C10         4.8553   -3.9751    0.2373 C.ar      1 <0>         0.2911
     13 N3          4.8126   -2.6546    0.1432 N.ar      1 <0>        -0.5580
     14 C11         6.1185   -4.7325    0.2600 C.2       1 <0>         0.0301
     15 C12         6.1161   -6.0922    0.0330 C.2       1 <0>        -0.1028
     16 C13         7.4485   -6.4934    0.1364 C.2       1 <0>        -0.0178
     17 N4          8.1644   -5.4066    0.3843 N.2       1 <0>        -0.2419
     18 N5          7.4018   -4.3668    0.4464 N.pl3     1 <0>        -0.2300
     19 C14         7.8621   -2.9964    0.6838 C.3       1 <0>         0.1422
     20 C15         8.8335   -2.5855   -0.4246 C.3       1 <0>        -0.1242
     21 C16         9.3143   -1.1543   -0.1767 C.3       1 <0>        -0.1149
     22 C17        10.0245   -1.0821    1.1766 C.3       1 <0>        -0.1243
     23 C18         9.0532   -1.4930    2.2849 C.3       1 <0>        -0.1152
     24 C19         8.5724   -2.9242    2.0370 C.3       1 <0>        -0.1269
     25 C20         7.9639   -7.8709   -0.0038 C.2       1 <0>         0.6127
     26 O1          7.1973   -8.7864   -0.2322 O.2       1 <0>        -0.5302
     27 N6          9.2839   -8.1126    0.1215 N.am      1 <0>        -0.8414
     28 C21         4.8624   -6.8598   -0.2697 C.3       1 <0>        -0.0499
     29 C22         3.6735   -6.2044    0.4342 C.3       1 <0>        -0.0640
     30 H1         -0.9276    1.8456   -0.8095 H         1 <0>         0.1228
     31 H2          0.8393    2.9020    0.5392 H         1 <0>         0.1258
     32 H3          2.9747    1.7348    0.9058 H         1 <0>         0.1233
     33 H4          1.5691   -1.5530   -1.4406 H         1 <0>         0.1339
     34 H5         -0.5624   -0.3769   -1.8014 H         1 <0>         0.1249
     35 H6          4.4450   -0.1441    0.0378 H         1 <0>         0.4224
     36 H7          1.5290   -4.5477    0.1754 H         1 <0>         0.1778
     37 H8          7.0066   -2.3210    0.6860 H         1 <0>         0.1290
     38 H9          9.6890   -3.2610   -0.4267 H         1 <0>         0.0792
     39 H10         8.3275   -2.6370   -1.3887 H         1 <0>         0.0691
     40 H11        10.0063   -0.8616   -0.9663 H         1 <0>         0.0732
     41 H12         8.4588   -0.4789   -0.1745 H         1 <0>         0.0670
     42 H13        10.8800   -1.7576    1.1744 H         1 <0>         0.0668
     43 H14        10.3671   -0.0625    1.3532 H         1 <0>         0.0691
     44 H15         9.5591   -1.4416    3.2490 H         1 <0>         0.0732
     45 H16         8.1976   -0.8176    2.2871 H         1 <0>         0.0662
     46 H17         7.8803   -3.2169    2.8266 H         1 <0>         0.0677
     47 H18         9.4279   -3.5996    2.0349 H         1 <0>         0.0803
     48 H19         9.8955   -7.3821    0.3037 H         1 <0>         0.4076
     49 H20         9.6222   -9.0170    0.0294 H         1 <0>         0.4078
     50 H21         4.6899   -6.8627   -1.3459 H         1 <0>         0.0826
     51 H22         4.9715   -7.8857    0.0821 H         1 <0>         0.1025
     52 H23         3.7176   -6.4423    1.4970 H         1 <0>         0.0816
     53 H24         2.7506   -6.6114    0.0212 H         1 <0>         0.0893
@<TRIPOS>BOND
     1    1    6 ar
     2    1    2 ar
     3    1   30 1
     4    2    3 ar
     5    2   31 1
     6    3    4 ar
     7    3   32 1
     8    4    5 ar
     9    4    7 1
    10    5    6 ar
    11    5   33 1
    12    6   34 1
    13    7    8 1
    14    7   35 1
    15    8   13 ar
    16    8    9 ar
    17    9   10 ar
    18   10   11 ar
    19   10   36 1
    20   11   29 1
    21   11   12 ar
    22   12   13 ar
    23   12   14 1
    24   14   18 1
    25   14   15 2
    26   15   16 1
    27   15   28 1
    28   16   17 2
    29   16   25 1
    30   17   18 1
    31   18   19 1
    32   19   24 1
    33   19   20 1
    34   19   37 1
    35   20   21 1
    36   20   38 1
    37   20   39 1
    38   21   22 1
    39   21   40 1
    40   21   41 1
    41   22   23 1
    42   22   42 1
    43   22   43 1
    44   23   24 1
    45   23   44 1
    46   23   45 1
    47   24   46 1
    48   24   47 1
    49   25   26 2
    50   25   27 am
    51   27   48 1
    52   27   49 1
    53   28   29 1
    54   28   50 1
    55   28   51 1
    56   29   52 1
    57   29   53 1
@<TRIPOS>MOLECULE
CHEMBL1094400
   47    51     0     0     0
SMALL
USER_CHARGES

@<TRIPOS>ATOM
      1 C1         -0.0590    1.2974   -0.3179 C.ar      1 <0>        -0.1354
      2 C2          0.9292    1.8538    0.4733 C.ar      1 <0>        -0.0996
      3 C3          2.1380    1.2044    0.6298 C.ar      1 <0>        -0.1464
      4 C4          2.3603   -0.0092   -0.0084 C.ar      1 <0>         0.1627
      5 C5          1.3653   -0.5655   -0.8020 C.ar      1 <0>        -0.1111
      6 C6          0.1590    0.0894   -0.9546 C.ar      1 <0>        -0.1002
      7 N1          3.5830   -0.6690    0.1475 N.pl3     1 <0>        -0.6375
      8 C7          3.6188   -2.0517    0.2263 C.ar      1 <0>         0.5621
      9 N2          2.4789   -2.7274    0.2613 N.ar      1 <0>        -0.5493
     10 C8          2.4620   -4.0486    0.3533 C.ar      1 <0>         0.1984
     11 C9          3.6608   -4.7347    0.4037 C.ar      1 <0>        -0.2147
     12 C10         4.8469   -3.9893    0.3364 C.ar      1 <0>         0.2847
     13 N3          4.7928   -2.6679    0.2595 N.ar      1 <0>        -0.5463
     14 C11         6.1141   -4.7385    0.3037 C.2       1 <0>         0.0369
     15 C12         6.1119   -6.0955    0.0607 C.2       1 <0>        -0.0975
     16 C13         7.4498   -6.4893    0.1103 C.2       1 <0>        -0.0076
     17 N4          8.1689   -5.4009    0.3450 N.2       1 <0>        -0.2423
     18 N5          7.4038   -4.3662    0.4476 N.pl3     1 <0>        -0.1916
     19 C14         7.8446   -3.0566    0.6733 C.ar      1 <0>         0.1173
     20 C15         7.1764   -2.2439    1.5799 C.ar      1 <0>        -0.0686
     21 C16         7.6141   -0.9527    1.8006 C.ar      1 <0>        -0.1090
     22 C17         8.7163   -0.4688    1.1199 C.ar      1 <0>        -0.1010
     23 C18         9.3838   -1.2755    0.2165 C.ar      1 <0>        -0.1101
     24 C19         8.9544   -2.5693   -0.0048 C.ar      1 <0>        -0.0922
     25 C20         7.9674   -7.8616   -0.0651 C.2       1 <0>         0.6132
     26 O1          7.1981   -8.7790   -0.2762 O.2       1 <0>        -0.5268
     27 N6          9.2924   -8.0967    0.0088 N.am      1 <0>        -0.8397
     28 C21         4.8526   -6.8678   -0.2051 C.3       1 <0>        -0.0502
     29 C22         3.6863   -6.2284    0.5494 C.3       1 <0>        -0.0646
     30 H1         -1.0049    1.8053   -0.4353 H         1 <0>         0.1230
     31 H2          0.7557    2.7974    0.9692 H         1 <0>         0.1258
     32 H3          2.9096    1.6398    1.2473 H         1 <0>         0.1234
     33 H4          1.5351   -1.5087   -1.2999 H         1 <0>         0.1291
     34 H5         -0.6150   -0.3426   -1.5716 H         1 <0>         0.1248
     35 H6          4.4062   -0.1587    0.2005 H         1 <0>         0.4229
     36 H7          1.5240   -4.5826    0.3888 H         1 <0>         0.1779
     37 H8          6.3153   -2.6211    2.1116 H         1 <0>         0.1247
     38 H9          7.0947   -0.3201    2.5052 H         1 <0>         0.1329
     39 H10         9.0563    0.5414    1.2939 H         1 <0>         0.1321
     40 H11        10.2442   -0.8946   -0.3135 H         1 <0>         0.1355
     41 H12         9.4787   -3.2002   -0.7072 H         1 <0>         0.1336
     42 H13         9.9062   -7.3647    0.1772 H         1 <0>         0.4083
     43 H14         9.6323   -8.9978   -0.1065 H         1 <0>         0.4092
     44 H15         4.6409   -6.8594   -1.2744 H         1 <0>         0.0851
     45 H16         4.9808   -7.8970    0.1302 H         1 <0>         0.1048
     46 H17         3.7705   -6.4786    1.6069 H         1 <0>         0.0824
     47 H18         2.7514   -6.6365    0.1654 H         1 <0>         0.0909
@<TRIPOS>BOND
     1    1    6 ar
     2    1    2 ar
     3    1   30 1
     4    2    3 ar
     5    2   31 1
     6    3    4 ar
     7    3   32 1
     8    4    5 ar
     9    4    7 1
    10    5    6 ar
    11    5   33 1
    12    6   34 1
    13    7    8 1
    14    7   35 1
    15    8   13 ar
    16    8    9 ar
    17    9   10 ar
    18   10   11 ar
    19   10   36 1
    20   11   29 1
    21   11   12 ar
    22   12   13 ar
    23   12   14 1
    24   14   18 1
    25   14   15 2
    26   15   16 1
    27   15   28 1
    28   16   17 2
    29   16   25 1
    30   17   18 1
    31   18   19 1
    32   19   24 ar
    33   19   20 ar
    34   20   21 ar
    35   20   37 1
    36   21   22 ar
    37   21   38 1
    38   22   23 ar
    39   22   39 1
    40   23   24 ar
    41   23   40 1
    42   24   41 1
    43   25   26 2
    44   25   27 am
    45   27   42 1
    46   27   43 1
    47   28   29 1
    48   28   44 1
    49   28   45 1
    50   29   46 1
    51   29   47 1
@<TRIPOS>MOLECULE
CHEMBL261720
   41    43     0     0     0
SMALL
USER_CHARGES

@<TRIPOS>ATOM
      1 C1         -0.1028    1.0961   -0.3671 C.ar      1 <0>        -0.0514
      2 C2          0.1939    0.2453    0.6818 C.ar      1 <0>        -0.1484
      3 C3          1.4264   -0.3800    0.7402 C.ar      1 <0>         0.1639
      4 C4          2.3673   -0.1521   -0.2572 C.ar      1 <0>         0.0453
      5 C5          2.0653    0.7038   -1.3099 C.ar      1 <0>         0.1303
      6 C6          0.8305    1.3253   -1.3612 C.ar      1 <0>        -0.1508
      7 F1          2.9766    0.9287   -2.2816 F         1 <0>        -0.1242
      8 N1          3.6170   -0.7832   -0.2014 N.pl3     1 <0>        -0.5829
      9 C7          3.7027   -2.0774    0.1649 C.2       1 <0>         0.5287
     10 S1          2.2783   -2.9758    0.4732 S.2       1 <0>        -0.4610
     11 N2          4.9096   -2.6643    0.2886 N.pl3     1 <0>        -0.3704
     12 C8          5.1565   -3.9777    0.5555 C.2       1 <0>         0.6130
     13 N3          6.4609   -4.1414    0.5939 N.2       1 <0>        -0.5881
     14 C9          7.0702   -2.9726    0.3596 C.2       1 <0>         0.5344
     15 N4          6.1641   -2.0459    0.1621 N.2       1 <0>        -0.3900
     16 N5          8.4494   -2.7737    0.3248 N.pl3     1 <0>        -0.6253
     17 C10         9.3156   -3.8654    0.4276 C.ar      1 <0>         0.2308
     18 C11         8.9430   -5.1006   -0.0877 C.ar      1 <0>        -0.1475
     19 C12         9.8015   -6.1774    0.0157 C.ar      1 <0>         0.0049
     20 C13        11.0306   -6.0273    0.6313 C.ar      1 <0>        -0.6997
     21 C14        11.4044   -4.7993    1.1458 C.ar      1 <0>         0.0107
     22 C15        10.5534   -3.7167    1.0403 C.ar      1 <0>        -0.1718
     23 S2         12.1228   -7.4039    0.7609 S.o2      1 <0>         2.7036
     24 O1         12.9813   -7.1389    1.8619 O.2       1 <0>        -0.9640
     25 O2         11.3155   -8.5710    0.6881 O.2       1 <0>        -0.9611
     26 N6         13.0757   -7.4022   -0.5934 N.pl3     1 <0>        -1.2489
     27 N7          4.2074   -4.9604    0.7511 N.pl3     1 <0>        -0.7789
     28 F2          1.7155   -1.2107    1.7657 F         1 <0>        -0.0889
     29 H1         -1.0676    1.5793   -0.4122 H         1 <0>         0.1524
     30 H2         -0.5376    0.0691    1.4566 H         1 <0>         0.1538
     31 H3          0.5950    1.9905   -2.1789 H         1 <0>         0.1534
     32 H4          4.4206   -0.2887   -0.4264 H         1 <0>         0.4283
     33 H5          8.8079   -1.8774    0.2293 H         1 <0>         0.4322
     34 H6          7.9831   -5.2186   -0.5683 H         1 <0>         0.1467
     35 H7          9.5123   -7.1380   -0.3844 H         1 <0>         0.1464
     36 H8         12.3649   -4.6855    1.6262 H         1 <0>         0.1476
     37 H9         10.8481   -2.7567    1.4378 H         1 <0>         0.1386
     38 H10        13.9781   -7.7554   -0.5519 H         1 <0>         0.4215
     39 H11        12.7314   -7.0480   -1.4282 H         1 <0>         0.4170
     40 H12         3.2665   -4.7264    0.7830 H         1 <0>         0.4323
     41 H13         4.4811   -5.8849    0.8567 H         1 <0>         0.4174
@<TRIPOS>BOND
     1    1    6 ar
     2    1    2 ar
     3    1   29 1
     4    2    3 ar
     5    2   30 1
     6    3    4 ar
     7    3   28 1
     8    4    5 ar
     9    4    8 1
    10    5    6 ar
    11    5    7 1
    12    6   31 1
    13    8    9 1
    14    8   32 1
    15    9   10 2
    16    9   11 1
    17   11   15 1
    18   11   12 1
    19   12   13 2
    20   12   27 1
    21   13   14 1
    22   14   15 2
    23   14   16 1
    24   16   17 1
    25   16   33 1
    26   17   22 ar
    27   17   18 ar
    28   18   19 ar
    29   18   34 1
    30   19   20 ar
    31   19   35 1
    32   20   21 ar
    33   20   23 1
    34   21   22 ar
    35   21   36 1
    36   22   37 1
    37   23   24 2
    38   23   25 2
    39   23   26 1
    40   26   38 1
    41   26   39 1
    42   27   40 1
    43   27   41 1
@<TRIPOS>MOLECULE
CHEMBL318999
   50    52     0     0     0
SMALL
USER_CHARGES

@<TRIPOS>ATOM
      1 C1          1.0837   -0.4478   -0.7152 C.ar      1 <0>        -0.1309
      2 C2          2.2670    0.2639   -0.6948 C.ar      1 <0>         0.0004
      3 C3          2.3684    1.4184    0.0597 C.ar      1 <0>        -0.6904
      4 C4          1.2862    1.8639    0.7964 C.ar      1 <0>         0.0050
      5 C5          0.1000    1.1570    0.7805 C.ar      1 <0>        -0.1625
      6 C6         -0.0054   -0.0029    0.0233 C.ar      1 <0>         0.2158
      7 N1         -1.2047   -0.7205    0.0046 N.pl3     1 <0>        -0.6182
      8 C7         -1.1840   -2.0911   -0.1039 C.ar      1 <0>         0.6795
      9 N2         -0.0080   -2.7004   -0.0774 N.ar      1 <0>        -0.6407
     10 C8          0.0948   -4.0186   -0.1759 C.ar      1 <0>         0.5741
     11 C9         -1.1469   -4.7990   -0.3174 C.ar      1 <0>        -0.2936
     12 C10        -2.4077   -4.0412   -0.3375 C.ar      1 <0>         0.4868
     13 N3         -2.3429   -2.7246   -0.2233 N.ar      1 <0>        -0.6577
     14 O1         -3.5958   -4.6708   -0.4639 O.3       1 <0>        -0.2421
     15 C11        -4.7665   -3.8515   -0.4733 C.3       1 <0>         0.0628
     16 C12        -6.0063   -4.7352   -0.6234 C.3       1 <0>        -0.0858
     17 C13        -5.9813   -5.4210   -1.9909 C.3       1 <0>        -0.1159
     18 C14        -7.2212   -6.3048   -2.1410 C.3       1 <0>        -0.1194
     19 C15        -8.4795   -5.4420   -2.0261 C.3       1 <0>        -0.1226
     20 C16        -8.5045   -4.7562   -0.6586 C.3       1 <0>        -0.1178
     21 C17        -7.2646   -3.8724   -0.5085 C.3       1 <0>        -0.1109
     22 N4         -1.1288   -6.1181   -0.4219 N.2       1 <0>        -0.3011
     23 O2         -2.1738   -6.7438   -0.4172 O.2       1 <0>         0.0478
     24 N5          1.3196   -4.6368   -0.1475 N.pl3     1 <0>        -0.7794
     25 S1          3.8800    2.3235    0.0828 S.o2      1 <0>         2.7028
     26 O3          3.8899    3.0666    1.2940 O.2       1 <0>        -0.9626
     27 O4          4.9092    1.4038   -0.2551 O.2       1 <0>        -0.9628
     28 N6          3.8085    3.4276   -1.1493 N.pl3     1 <0>        -1.2501
     29 H1          1.0038   -1.3469   -1.3082 H         1 <0>         0.1465
     30 H2          3.1143   -0.0816   -1.2685 H         1 <0>         0.1475
     31 H3          1.3689    2.7656    1.3852 H         1 <0>         0.1501
     32 H4         -0.7447    1.5053    1.3564 H         1 <0>         0.1405
     33 H5         -2.0515   -0.2517    0.0681 H         1 <0>         0.4335
     34 H6         -4.8280   -3.2950    0.4619 H         1 <0>         0.0753
     35 H7         -4.7146   -3.1533   -1.3087 H         1 <0>         0.0744
     36 H8         -6.0111   -5.4910    0.1620 H         1 <0>         0.0885
     37 H9         -5.9766   -4.6652   -2.7763 H         1 <0>         0.0584
     38 H10        -5.0849   -6.0357   -2.0728 H         1 <0>         0.0764
     39 H11        -7.2034   -6.7933   -3.1152 H         1 <0>         0.0633
     40 H12        -7.2259   -7.0606   -1.3556 H         1 <0>         0.0657
     41 H13        -8.4747   -4.6862   -2.8115 H         1 <0>         0.0603
     42 H14        -9.3628   -6.0716   -2.1331 H         1 <0>         0.0622
     43 H15        -9.4009   -4.1415   -0.5768 H         1 <0>         0.0641
     44 H16        -8.5092   -5.5120    0.1268 H         1 <0>         0.0650
     45 H17        -7.2824   -3.3839    0.4657 H         1 <0>         0.0648
     46 H18        -7.2599   -3.1167   -1.2939 H         1 <0>         0.0648
     47 H19         2.1213   -4.1172    0.0202 H         1 <0>         0.4207
     48 H20         1.3836   -5.5933   -0.2952 H         1 <0>         0.4292
     49 H21         3.0220    3.4727   -1.7151 H         1 <0>         0.4167
     50 H22         4.5532    4.0293   -1.3051 H         1 <0>         0.4218
@<TRIPOS>BOND
     1    1    6 ar
     2    1    2 ar
     3    1   29 1
     4    2    3 ar
     5    2   30 1
     6    3    4 ar
     7    3   25 1
     8    4    5 ar
     9    4   31 1
    10    5    6 ar
    11    5   32 1
    12    6    7 1
    13    7    8 1
    14    7   33 1
    15    8   13 ar
    16    8    9 ar
    17    9   10 ar
    18   10   11 ar
    19   10   24 1
    20   11   12 ar
    21   11   22 1
    22   12   13 ar
    23   12   14 1
    24   14   15 1
    25   15   16 1
    26   15   34 1
    27   15   35 1
    28   16   21 1
    29   16   17 1
    30   16   36 1
    31   17   18 1
    32   17   37 1
    33   17   38 1
    34   18   19 1
    35   18   39 1
    36   18   40 1
    37   19   20 1
    38   19   41 1
    39   19   42 1
    40   20   21 1
    41   20   43 1
    42   20   44 1
    43   21   45 1
    44   21   46 1
    45   22   23 2
    46   24   47 1
    47   24   48 1
    48   25   26 2
    49   25   27 2
    50   25   28 1
    51   28   49 1
    52   28   50 1
@<TRIPOS>MOLECULE
CHEMBL307808
   61    65     0     0     0
SMALL
USER_CHARGES

@<TRIPOS>ATOM
      1 C1          5.2616   -6.1037   -3.3407 C.3       1 <0>         0.0304
      2 O1          4.0019   -5.7815   -2.7478 O.3       1 <0>        -0.3898
      3 C2          3.5680   -4.4429   -2.9963 C.3       1 <0>         0.0519
      4 C3          2.2163   -4.2107   -2.3182 C.3       1 <0>         0.1187
      5 N1          2.3769   -4.3025   -0.8649 N.pl3     1 <0>        -1.1132
      6 S1          1.1861   -3.7366    0.1371 S.o2      1 <0>         2.6976
      7 O2          1.6199   -3.9893    1.4665 O.2       1 <0>        -0.9582
      8 O3          0.8551   -2.4330   -0.3213 O.2       1 <0>        -0.9576
      9 C4         -0.2378   -4.7401   -0.1273 C.ar      1 <0>        -0.6967
     10 C5         -1.1605   -4.3872   -1.0950 C.ar      1 <0>        -0.0007
     11 C6         -2.2774   -5.1718   -1.3052 C.ar      1 <0>        -0.1367
     12 C7         -2.4735   -6.3165   -0.5432 C.ar      1 <0>         0.2254
     13 C8         -1.5448   -6.6681    0.4280 C.ar      1 <0>        -0.1693
     14 C9         -0.4274   -5.8819    0.6294 C.ar      1 <0>         0.0077
     15 N2         -3.6034   -7.1128   -0.7531 N.pl3     1 <0>        -0.6371
     16 C10        -4.1271   -7.2499   -2.0283 C.ar      1 <0>         0.5733
     17 N3         -3.4833   -6.7074   -3.0522 N.ar      1 <0>        -0.5585
     18 C11        -3.9496   -6.8150   -4.2880 C.ar      1 <0>         0.2061
     19 C12        -5.1254   -7.5040   -4.5098 C.ar      1 <0>        -0.2960
     20 C13        -5.7863   -8.0681   -3.4089 C.ar      1 <0>         0.3114
     21 N4         -5.2540   -7.9235   -2.1930 N.ar      1 <0>        -0.5519
     22 C14        -7.0438   -8.8123   -3.5917 C.2       1 <0>        -0.0626
     23 C15        -7.8657   -9.2993   -2.5967 C.2       1 <0>         0.1264
     24 N5         -8.8961   -9.9089   -3.1697 N.2       1 <0>        -0.4863
     25 C16        -8.7781   -9.8383   -4.4929 C.2       1 <0>         0.2547
     26 N6         -7.6325   -9.1531   -4.7904 N.pl3     1 <0>        -0.3460
     27 C17        -7.2721   -8.9313   -6.0870 C.2       1 <0>         0.1139
     28 C18        -8.0477   -9.3844   -7.1053 C.2       1 <0>        -0.1567
     29 C19        -9.2347  -10.0894   -6.8273 C.2       1 <0>        -0.0692
     30 C20        -9.5931  -10.3201   -5.5352 C.2       1 <0>        -0.0750
     31 S2         -7.5691   -9.0895   -8.7752 S.3       1 <0>         0.0372
     32 C21        -7.2146  -10.6957   -9.4070 C.ar      1 <0>        -0.1083
     33 C22        -7.4010  -11.8161   -8.6060 C.ar      1 <0>        -0.1259
     34 C23        -7.1222  -13.0732   -9.1044 C.ar      1 <0>        -0.1009
     35 C24        -6.6579  -13.2182  -10.3992 C.ar      1 <0>        -0.1176
     36 C25        -6.4708  -12.1056  -11.1991 C.ar      1 <0>        -0.1007
     37 C26        -6.7534  -10.8458  -10.7094 C.ar      1 <0>        -0.0944
     38 H1          6.0296   -5.4382   -2.9465 H         1 <0>         0.0434
     39 H2          5.5201   -7.1363   -3.1059 H         1 <0>         0.0877
     40 H3          5.1958   -5.9825   -4.4219 H         1 <0>         0.0429
     41 H4          4.3008   -3.7429   -2.5950 H         1 <0>         0.0614
     42 H5          3.4671   -4.2872   -4.0704 H         1 <0>         0.0670
     43 H6          1.8434   -3.2207   -2.5807 H         1 <0>         0.0960
     44 H7          1.5067   -4.9670   -2.6538 H         1 <0>         0.0762
     45 H8          3.1808   -4.6948   -0.4896 H         1 <0>         0.4232
     46 H9         -1.0076   -3.4969   -1.6869 H         1 <0>         0.1426
     47 H10        -2.9978   -4.8955   -2.0609 H         1 <0>         0.1434
     48 H11        -1.6945   -7.5573    1.0224 H         1 <0>         0.1366
     49 H12         0.2972   -6.1570    1.3816 H         1 <0>         0.1449
     50 H13        -4.0206   -7.5692   -0.0058 H         1 <0>         0.4291
     51 H14        -3.4155   -6.3679   -5.1133 H         1 <0>         0.1779
     52 H15        -5.5267   -7.6057   -5.5073 H         1 <0>         0.1435
     53 H16        -7.6990   -9.2019   -1.5341 H         1 <0>         0.1977
     54 H17        -6.3630   -8.3909   -6.3055 H         1 <0>         0.1826
     55 H18        -9.8537  -10.4506   -7.6353 H         1 <0>         0.1552
     56 H19       -10.5019  -10.8585   -5.3106 H         1 <0>         0.1653
     57 H20        -7.7632  -11.7035   -7.5947 H         1 <0>         0.1225
     58 H21        -7.2664  -13.9442   -8.4824 H         1 <0>         0.1267
     59 H22        -6.4406  -14.2028  -10.7864 H         1 <0>         0.1273
     60 H23        -6.1078  -12.2226  -12.2095 H         1 <0>         0.1310
     61 H24        -6.6120   -9.9778  -11.3363 H         1 <0>         0.1303
@<TRIPOS>BOND
     1    1    2 1
     2    1   38 1
     3    1   39 1
     4    1   40 1
     5    2    3 1
     6    3    4 1
     7    3   41 1
     8    3   42 1
     9    4    5 1
    10    4   43 1
    11    4   44 1
    12    5    6 1
    13    5   45 1
    14    6    7 2
    15    6    8 2
    16    6    9 1
    17    9   14 ar
    18    9   10 ar
    19   10   11 ar
    20   10   46 1
    21   11   12 ar
    22   11   47 1
    23   12   13 ar
    24   12   15 1
    25   13   14 ar
    26   13   48 1
    27   14   49 1
    28   15   16 1
    29   15   50 1
    30   16   21 ar
    31   16   17 ar
    32   17   18 ar
    33   18   19 ar
    34   18   51 1
    35   19   20 ar
    36   19   52 1
    37   20   21 ar
    38   20   22 1
    39   22   26 1
    40   22   23 2
    41   23   24 1
    42   23   53 1
    43   24   25 2
    44   25   30 1
    45   25   26 1
    46   26   27 1
    47   27   28 2
    48   27   54 1
    49   28   29 1
    50   28   31 1
    51   29   30 2
    52   29   55 1
    53   30   56 1
    54   31   32 1
    55   32   37 ar
    56   32   33 ar
    57   33   34 ar
    58   33   57 1
    59   34   35 ar
    60   34   58 1
    61   35   36 ar
    62   35   59 1
    63   36   37 ar
    64   36   60 1
    65   37   61 1
@<TRIPOS>MOLECULE
CHEMBL576683
   57    61     0     0     0
SMALL
USER_CHARGES

@<TRIPOS>ATOM
      1 C1          0.2687    1.4994   -0.0116 C.3       1 <0>        -0.1026
      2 C2          0.2120   -0.0066   -0.0141 C.ar      1 <0>        -0.2345
      3 C3         -0.0127   -0.7042   -1.1865 C.ar      1 <0>         0.1909
      4 N1         -0.0569   -2.0271   -1.1551 N.ar      1 <0>        -0.5593
      5 C4          0.1107   -2.6887   -0.0189 C.ar      1 <0>         0.5585
      6 N2          0.3281   -2.0606    1.1260 N.ar      1 <0>        -0.5481
      7 C5          0.3910   -0.7311    1.1683 C.ar      1 <0>         0.3008
      8 C6          0.6407   -0.0302    2.4497 C.2       1 <0>        -0.1557
      9 C7          0.1915   -0.4318    3.7242 C.2       1 <0>        -0.0510
     10 C8          0.6435    0.4950    4.6192 C.2       1 <0>        -0.0601
     11 N3          1.3550    1.4496    3.9275 N.pl3     1 <0>        -0.5286
     12 H1          1.7873    2.2239    4.3205 H         1 <0>         0.4213
     13 C9          1.3603    1.1324    2.6189 C.2       1 <0>         0.0728
     14 C10         0.4108    0.4772    6.0680 C.2       1 <0>         0.5927
     15 O1         -0.2373   -0.4226    6.5691 O.2       1 <0>        -0.5223
     16 N4          0.9149    1.4573    6.8437 N.am      1 <0>        -0.7196
     17 C11         0.6826    1.4395    8.2900 C.3       1 <0>         0.1936
     18 H2          0.6778    0.4088    8.6445 H         1 <0>         0.1151
     19 C12        -0.6671    2.0910    8.5978 C.3       1 <0>         0.0670
     20 O2         -0.6214    3.4735    8.2393 O.3       1 <0>        -0.5678
     21 C13         1.7797    2.2045    8.9845 C.ar      1 <0>        -0.0799
     22 C14         2.2556    3.3812    8.4363 C.ar      1 <0>        -0.0879
     23 C15         3.2618    4.0834    9.0726 C.ar      1 <0>        -0.1063
     24 C16         3.7933    3.6092   10.2574 C.ar      1 <0>        -0.1060
     25 C17         3.3176    2.4320   10.8063 C.ar      1 <0>        -0.0330
     26 C18         2.3060    1.7326   10.1720 C.ar      1 <0>        -0.0994
     27 Cl1         3.9844    1.8359   12.2942 Cl        1 <0>        -0.0646
     28 N5          0.0566   -4.0725   -0.0296 N.pl3     1 <0>        -0.6363
     29 C19        -0.0459   -4.7600   -1.2457 C.ar      1 <0>         0.2180
     30 C20         0.5331   -4.2338   -2.3927 C.ar      1 <0>        -0.1033
     31 C21         0.4317   -4.9115   -3.5926 C.ar      1 <0>        -0.0744
     32 C22        -0.2452   -6.1153   -3.6563 C.ar      1 <0>        -0.1032
     33 C23        -0.8267   -6.6489   -2.5160 C.ar      1 <0>         0.0515
     34 C24        -0.7229   -5.9736   -1.3047 C.ar      1 <0>        -0.0172
     35 O3         -1.3657   -6.6997   -0.3427 O.3       1 <0>        -0.2873
     36 C25        -2.2065   -7.6246   -1.0577 C.3       1 <0>         0.5732
     37 O4         -1.5361   -7.7981   -2.3161 O.3       1 <0>        -0.2852
     38 F1         -2.2975   -8.8393   -0.3696 F         1 <0>        -0.1156
     39 F2         -3.4776   -7.0770   -1.2615 F         1 <0>        -0.1537
     40 H3          1.2941    1.8246   -0.1874 H         1 <0>         0.0710
     41 H4         -0.3760    1.8885   -0.7996 H         1 <0>         0.0711
     42 H5         -0.0708    1.8742    0.9539 H         1 <0>         0.0742
     43 H6         -0.1510   -0.1755   -2.1181 H         1 <0>         0.1730
     44 H7         -0.3993   -1.3072    3.9501 H         1 <0>         0.1554
     45 H8          1.8440    1.6956    1.8344 H         1 <0>         0.1850
     46 H9          1.4316    2.1746    6.4442 H         1 <0>         0.3965
     47 H10        -1.4498    1.5929    8.0258 H         1 <0>         0.0600
     48 H11        -0.8806    1.9986    9.6627 H         1 <0>         0.0601
     49 H12        -1.4454    3.9509    8.4075 H         1 <0>         0.3826
     50 H13         1.8412    3.7517    7.5103 H         1 <0>         0.1283
     51 H14         3.6332    5.0025    8.6440 H         1 <0>         0.1343
     52 H15         4.5800    4.1576   10.7542 H         1 <0>         0.1350
     53 H16         1.9311    0.8158   10.6023 H         1 <0>         0.1358
     54 H17         0.0897   -4.5657    0.8050 H         1 <0>         0.4294
     55 H18         1.0628   -3.2937   -2.3472 H         1 <0>         0.1588
     56 H19         0.8824   -4.4995   -4.4834 H         1 <0>         0.1508
     57 H20        -0.3216   -6.6413   -4.5964 H         1 <0>         0.1458
@<TRIPOS>BOND
     1    1    2 1
     2    1   40 1
     3    1   41 1
     4    1   42 1
     5    2    7 ar
     6    2    3 ar
     7    3    4 ar
     8    3   43 1
     9    4    5 ar
    10    5    6 ar
    11    5   28 1
    12    6    7 ar
    13    7    8 1
    14    8   13 2
    15    8    9 1
    16    9   10 2
    17    9   44 1
    18   10   11 1
    19   10   14 1
    20   11   12 1
    21   11   13 1
    22   13   45 1
    23   14   15 2
    24   14   16 am
    25   16   17 1
    26   16   46 1
    27   17   18 1
    28   17   19 1
    29   17   21 1
    30   19   20 1
    31   19   47 1
    32   19   48 1
    33   20   49 1
    34   21   26 ar
    35   21   22 ar
    36   22   23 ar
    37   22   50 1
    38   23   24 ar
    39   23   51 1
    40   24   25 ar
    41   24   52 1
    42   25   26 ar
    43   25   27 1
    44   26   53 1
    45   28   29 1
    46   28   54 1
    47   29   34 ar
    48   29   30 ar
    49   30   31 ar
    50   30   55 1
    51   31   32 ar
    52   31   56 1
    53   32   33 ar
    54   32   57 1
    55   33   37 1
    56   33   34 ar
    57   34   35 1
    58   35   36 1
    59   36   37 1
    60   36   38 1
    61   36   39 1
@<TRIPOS>MOLECULE
CHEMBL445813
   43    45     0     0     0
SMALL
USER_CHARGES

@<TRIPOS>ATOM
      1 C1         -0.0167    1.3791    0.0096 C.ar      1 <0>        -0.0698
      2 C2          1.1675    2.0941    0.0022 C.ar      1 <0>        -0.1041
      3 C3          2.3786    1.4307   -0.0134 C.ar      1 <0>         0.0046
      4 C4          2.4058    0.0335   -0.0211 C.ar      1 <0>        -0.1178
      5 C5          1.2052   -0.6817   -0.0130 C.ar      1 <0>         0.0046
      6 C6          0.0021   -0.0041    0.0020 C.ar      1 <0>        -0.1044
      7 Cl1         1.2262   -2.4176   -0.0230 Cl        1 <0>        -0.0391
      8 C7          3.6966   -0.6835   -0.0382 C.2       1 <0>         0.5702
      9 O1          4.2389   -0.9843    1.0077 O.2       1 <0>        -0.4955
     10 N1          4.2737   -1.0045   -1.2131 N.am      1 <0>        -0.6213
     11 C8          5.4999   -1.6856   -1.2294 C.2       1 <0>         0.0911
     12 C9          6.2283   -2.0967   -0.1573 C.2       1 <0>        -0.0188
     13 N2          7.3381   -2.7109   -0.6417 N.pl3     1 <0>        -0.3624
     14 H1          8.0379   -3.1031   -0.0964 H         1 <0>         0.4576
     15 N3          7.3278   -2.6979   -1.9261 N.2       1 <0>        -0.2395
     16 C10         6.2398   -2.0971   -2.3681 C.2       1 <0>        -0.0478
     17 C11         5.8651   -1.8890   -3.7795 C.2       1 <0>         0.6212
     18 O2          4.8300   -1.3136   -4.0552 O.2       1 <0>        -0.5297
     19 N4          6.6700   -2.3365   -4.7635 N.am      1 <0>        -0.7176
     20 C12         6.2978   -2.1298   -6.1652 C.3       1 <0>         0.1360
     21 C13         5.3719   -3.2611   -6.6214 C.3       1 <0>        -0.1646
     22 C14         5.0512   -3.0827   -8.1069 C.3       1 <0>        -0.0030
     23 N5          6.2937   -3.1206   -8.8874 N.4       1 <0>        -0.5069
     24 C15         7.1562   -1.9960   -8.5056 C.3       1 <0>        -0.0012
     25 C16         7.5579   -2.1325   -7.0354 C.3       1 <0>        -0.1589
     26 Cl2         3.8634    2.3301   -0.0239 Cl        1 <0>        -0.0379
     27 H2         -0.9607    1.9035    0.0260 H         1 <0>         0.1529
     28 H3          1.1449    3.1738    0.0081 H         1 <0>         0.1516
     29 H4         -0.9266   -0.5554    0.0079 H         1 <0>         0.1514
     30 H5          3.8411   -0.7645   -2.0475 H         1 <0>         0.4255
     31 H6          5.9726   -1.9600    0.8831 H         1 <0>         0.2119
     32 H7          7.4957   -2.7955   -4.5435 H         1 <0>         0.4145
     33 H8          5.7852   -1.1734   -6.2690 H         1 <0>         0.1086
     34 H9          5.8665   -4.2203   -6.4685 H         1 <0>         0.0925
     35 H10         4.4482   -3.2309   -6.0434 H         1 <0>         0.1186
     36 H11         4.3919   -3.8864   -8.4349 H         1 <0>         0.1375
     37 H12         4.5564   -2.1234   -8.2587 H         1 <0>         0.1346
     38 H13         6.7757   -3.9887   -8.7085 H         1 <0>         0.4286
     39 H14         8.0511   -1.9974   -9.1280 H         1 <0>         0.1397
     40 H15         6.6166   -1.0598   -8.6489 H         1 <0>         0.1351
     41 H16         8.1968   -1.2957   -6.7534 H         1 <0>         0.1209
     42 H17         8.0979   -3.0683   -6.8911 H         1 <0>         0.0965
     43 H18         6.0744   -3.0564   -9.8702 H         1 <0>         0.4344
@<TRIPOS>BOND
     1    1    6 ar
     2    1    2 ar
     3    1   27 1
     4    2    3 ar
     5    2   28 1
     6    3    4 ar
     7    3   26 1
     8    4    5 ar
     9    4    8 1
    10    5    6 ar
    11    5    7 1
    12    6   29 1
    13    8    9 2
    14    8   10 am
    15   10   11 1
    16   10   30 1
    17   11   16 1
    18   11   12 2
    19   12   13 1
    20   12   31 1
    21   13   14 1
    22   13   15 1
    23   15   16 2
    24   16   17 1
    25   17   18 2
    26   17   19 am
    27   19   20 1
    28   19   32 1
    29   20   25 1
    30   20   21 1
    31   20   33 1
    32   21   22 1
    33   21   34 1
    34   21   35 1
    35   22   23 1
    36   22   36 1
    37   22   37 1
    38   23   24 1
    39   23   38 1
    40   23   43 1
    41   24   25 1
    42   24   39 1
    43   24   40 1
    44   25   41 1
    45   25   42 1
@<TRIPOS>MOLECULE
CHEMBL445813
   43    45     0     0     0
SMALL
USER_CHARGES

@<TRIPOS>ATOM
      1 C1         -0.0167    1.3791    0.0096 C.ar      1 <0>        -0.0689
      2 C2          1.1675    2.0941    0.0022 C.ar      1 <0>        -0.1038
      3 C3          2.3786    1.4309   -0.0134 C.ar      1 <0>         0.0051
      4 C4          2.4058    0.0335   -0.0212 C.ar      1 <0>        -0.1198
      5 C5          1.2052   -0.6817   -0.0131 C.ar      1 <0>         0.0051
      6 C6          0.0021   -0.0041    0.0020 C.ar      1 <0>        -0.1042
      7 Cl1         1.2262   -2.4176   -0.0233 Cl        1 <0>        -0.0384
      8 C7          3.6966   -0.6834   -0.0384 C.2       1 <0>         0.5726
      9 O1          4.2388   -0.9842    1.0074 O.2       1 <0>        -0.4817
     10 N1          4.2736   -1.0043   -1.2134 N.am      1 <0>        -0.6228
     11 C8          5.4937   -1.6820   -1.2296 C.2       1 <0>         0.1428
     12 C9          6.2507   -2.1027   -0.1245 C.2       1 <0>         0.0051
     13 N2          7.3231   -2.6983   -0.5757 N.2       1 <0>        -0.2305
     14 H1          8.0449   -3.0995   -2.4037 H         1 <0>         0.4464
     15 N3          7.3432   -2.7093   -1.8595 N.pl3     1 <0>        -0.3764
     16 C10         6.2188   -2.0916   -2.3447 C.2       1 <0>        -0.1072
     17 C11         5.8560   -1.8993   -3.7519 C.2       1 <0>         0.6105
     18 O2          4.8215   -1.3270   -4.0409 O.2       1 <0>        -0.5223
     19 N4          6.6680   -2.3562   -4.7257 N.am      1 <0>        -0.7286
     20 C12         6.3054   -2.1640   -6.1321 C.3       1 <0>         0.1374
     21 C13         5.3835   -3.3006   -6.5831 C.3       1 <0>        -0.1646
     22 C14         5.0730   -3.1375   -8.0726 C.3       1 <0>        -0.0032
     23 N5          6.3209   -3.1824   -8.8440 N.4       1 <0>        -0.5070
     24 C15         7.1800   -2.0533   -8.4677 C.3       1 <0>        -0.0013
     25 C16         7.5716   -2.1747   -6.9934 C.3       1 <0>        -0.1595
     26 Cl2         3.8634    2.3303   -0.0239 Cl        1 <0>        -0.0371
     27 H2         -0.9607    1.9035    0.0260 H         1 <0>         0.1533
     28 H3          1.1448    3.1739    0.0082 H         1 <0>         0.1520
     29 H4         -0.9266   -0.5554    0.0079 H         1 <0>         0.1518
     30 H5          3.8410   -0.7643   -2.0477 H         1 <0>         0.4250
     31 H6          5.9929   -1.9590    0.9144 H         1 <0>         0.2136
     32 H7          7.4925   -2.8124   -4.4954 H         1 <0>         0.4028
     33 H8          5.7930   -1.2092   -6.2491 H         1 <0>         0.1108
     34 H9          5.8776   -4.2578   -6.4170 H         1 <0>         0.0923
     35 H10         4.4558   -3.2651   -6.0119 H         1 <0>         0.1193
     36 H11         4.4166   -3.9450   -8.3970 H         1 <0>         0.1385
     37 H12         4.5786   -2.1801   -8.2375 H         1 <0>         0.1353
     38 H13         6.8023   -4.0483   -8.6529 H         1 <0>         0.4286
     39 H14         8.0792   -2.0604   -9.0837 H         1 <0>         0.1406
     40 H15         6.6408   -1.1191   -8.6242 H         1 <0>         0.1358
     41 H16         8.2080   -1.3345   -6.7155 H         1 <0>         0.1212
     42 H17         8.1112   -3.1086   -6.8358 H         1 <0>         0.0961
     43 H18         6.1084   -3.1283   -9.8289 H         1 <0>         0.4354
@<TRIPOS>BOND
     1    1    6 ar
     2    1    2 ar
     3    1   27 1
     4    2    3 ar
     5    2   28 1
     6    3    4 ar
     7    3   26 1
     8    4    5 ar
     9    4    8 1
    10    5    6 ar
    11    5    7 1
    12    6   29 1
    13    8    9 2
    14    8   10 am
    15   10   30 1
    16   10   11 1
    17   11   12 1
    18   11   16 2
    19   12   13 2
    20   12   31 1
    21   13   15 1
    22   14   15 1
    23   15   16 1
    24   16   17 1
    25   17   18 2
    26   17   19 am
    27   19   20 1
    28   19   32 1
    29   20   25 1
    30   20   21 1
    31   20   33 1
    32   21   22 1
    33   21   34 1
    34   21   35 1
    35   22   23 1
    36   22   36 1
    37   22   37 1
    38   23   24 1
    39   23   38 1
    40   23   43 1
    41   24   25 1
    42   24   39 1
    43   24   40 1
    44   25   41 1
    45   25   42 1
@<TRIPOS>MOLECULE
CHEMBL521871
   67    71     0     0     0
SMALL
USER_CHARGES

@<TRIPOS>ATOM
      1 C1          2.9059    3.3302    1.5312 C.3       1 <0>        -0.0556
      2 N1          2.6865    4.4029    0.5517 N.4       1 <0>        -0.3822
      3 C2          2.9992    5.6995    1.1673 C.3       1 <0>        -0.0477
      4 C3          3.5585    4.1899   -0.6111 C.3       1 <0>        -0.0443
      5 C4          3.1502    2.9000   -1.3254 C.3       1 <0>         0.0843
      6 C5          4.1344    2.6123   -2.4609 C.3       1 <0>         0.0308
      7 O1          3.8227    1.3496   -3.0530 O.3       1 <0>        -0.3035
      8 C6          4.6081    0.9410   -4.0852 C.ar      1 <0>         0.0971
      9 C7          5.6598    1.7376   -4.5135 C.ar      1 <0>        -0.1852
     10 C8          6.4579    1.3234   -5.5616 C.ar      1 <0>        -0.0741
     11 C9          6.2074    0.1090   -6.1867 C.ar      1 <0>         0.1462
     12 C10         5.1544   -0.6879   -5.7573 C.ar      1 <0>        -0.1084
     13 C11         4.3607   -0.2748   -4.7054 C.ar      1 <0>        -0.1201
     14 N2          7.0160   -0.3116   -7.2499 N.pl3     1 <0>        -0.6404
     15 C12         8.3642    0.0057   -7.2623 C.ar      1 <0>         0.5663
     16 N3          8.8945    0.6114   -6.2093 N.ar      1 <0>        -0.5718
     17 C13        10.1797    0.9319   -6.1813 C.ar      1 <0>         0.1924
     18 C14        10.9764    0.6287   -7.2682 C.ar      1 <0>        -0.2732
     19 C15        10.3899   -0.0114   -8.3673 C.ar      1 <0>         0.3177
     20 N4          9.0907   -0.3085   -8.3231 N.ar      1 <0>        -0.5721
     21 C16        11.1988   -0.3570   -9.5541 C.2       1 <0>        -0.1998
     22 C17        12.5646   -0.1155   -9.7276 C.2       1 <0>         0.0895
     23 N5         12.9276   -0.5626  -10.9078 N.2       1 <0>        -0.2448
     24 N6         11.8176   -1.1148  -11.5565 N.pl3     1 <0>        -0.1407
     25 C18        10.7420   -0.9957  -10.7185 C.2       1 <0>         0.0828
     26 C19         9.4887   -1.4790  -11.1212 C.2       1 <0>        -0.0041
     27 C20         9.3643   -2.0649  -12.3446 C.2       1 <0>        -0.1792
     28 C21        10.4854   -2.1783  -13.1850 C.2       1 <0>         0.4053
     29 N7         11.6569   -1.7170  -12.8102 N.2       1 <0>        -0.2993
     30 N8         10.3506   -2.7779  -14.4329 N.pl3     1 <0>        -0.5909
     31 C22        11.4702   -2.8003  -15.3875 C.3       1 <0>         0.0837
     32 C23        11.6599   -4.2407  -15.8765 C.3       1 <0>         0.0462
     33 O2         10.4095   -4.7446  -16.3526 O.3       1 <0>        -0.3750
     34 C24         9.3901   -4.8196  -15.3531 C.3       1 <0>         0.0457
     35 C25         9.0860   -3.4138  -14.8351 C.3       1 <0>         0.0858
     36 O3          1.8341    3.0487   -1.8619 O.3       1 <0>        -0.5431
     37 H1          2.6739    2.3681    1.0744 H         1 <0>         0.1257
     38 H2          3.9476    3.3384    1.8518 H         1 <0>         0.1243
     39 H3          2.2588    3.4882    2.3940 H         1 <0>         0.1286
     40 H4          4.0409    5.7077    1.4880 H         1 <0>         0.1232
     41 H5          2.8365    6.4954    0.4406 H         1 <0>         0.1239
     42 H6          2.3522    5.8575    2.0302 H         1 <0>         0.1275
     43 H7          3.4613    5.0314   -1.2971 H         1 <0>         0.1390
     44 H8          4.5936    4.1095   -0.2792 H         1 <0>         0.1442
     45 H9          3.1620    2.0725   -0.6160 H         1 <0>         0.1341
     46 H10         4.0584    3.3958   -3.2149 H         1 <0>         0.0756
     47 H11         5.1494    2.5869   -2.0644 H         1 <0>         0.0802
     48 H12         5.8543    2.6823   -4.0275 H         1 <0>         0.1250
     49 H13         7.2765    1.9439   -5.8952 H         1 <0>         0.1401
     50 H14         4.9588   -1.6324   -6.2432 H         1 <0>         0.1359
     51 H15         3.5444   -0.8965   -4.3684 H         1 <0>         0.1361
     52 H16         6.6319   -0.8251   -7.9777 H         1 <0>         0.4234
     53 H17        10.6000    1.4256   -5.3176 H         1 <0>         0.1708
     54 H18        12.0269    0.8796   -7.2706 H         1 <0>         0.1486
     55 H19        13.2149    0.3607   -9.0088 H         1 <0>         0.2074
     56 H20         8.6326   -1.3881  -10.4691 H         1 <0>         0.1718
     57 H21         8.4055   -2.4422  -12.6684 H         1 <0>         0.1581
     58 H22        11.2440   -2.1520  -16.2340 H         1 <0>         0.0815
     59 H23        12.3798   -2.4572  -14.8945 H         1 <0>         0.1069
     60 H24        12.3907   -4.2574  -16.6850 H         1 <0>         0.1125
     61 H25        12.0127   -4.8614  -15.0529 H         1 <0>         0.0586
     62 H26         8.4880   -5.2529  -15.7851 H         1 <0>         0.1135
     63 H27         9.7347   -5.4424  -14.5276 H         1 <0>         0.0583
     64 H28         8.4174   -3.4768  -13.9765 H         1 <0>         0.0969
     65 H29         8.6156   -2.8283  -15.6250 H         1 <0>         0.0868
     66 H30         1.7494    3.7684   -2.5021 H         1 <0>         0.3903
     67 H31         1.7222    4.3953    0.2549 H         1 <0>         0.4327
@<TRIPOS>BOND
     1    1    2 1
     2    1   37 1
     3    1   38 1
     4    1   39 1
     5    2    3 1
     6    2    4 1
     7    2   67 1
     8    3   40 1
     9    3   41 1
    10    3   42 1
    11    4    5 1
    12    4   43 1
    13    4   44 1
    14    5    6 1
    15    5   36 1
    16    5   45 1
    17    6    7 1
    18    6   46 1
    19    6   47 1
    20    7    8 1
    21    8   13 ar
    22    8    9 ar
    23    9   10 ar
    24    9   48 1
    25   10   11 ar
    26   10   49 1
    27   11   12 ar
    28   11   14 1
    29   12   13 ar
    30   12   50 1
    31   13   51 1
    32   14   15 1
    33   14   52 1
    34   15   20 ar
    35   15   16 ar
    36   16   17 ar
    37   17   18 ar
    38   17   53 1
    39   18   19 ar
    40   18   54 1
    41   19   20 ar
    42   19   21 1
    43   21   25 2
    44   21   22 1
    45   22   23 2
    46   22   55 1
    47   23   24 1
    48   24   29 1
    49   24   25 1
    50   25   26 1
    51   26   27 2
    52   26   56 1
    53   27   28 1
    54   27   57 1
    55   28   29 2
    56   28   30 1
    57   30   35 1
    58   30   31 1
    59   31   32 1
    60   31   58 1
    61   31   59 1
    62   32   33 1
    63   32   60 1
    64   32   61 1
    65   33   34 1
    66   34   35 1
    67   34   62 1
    68   34   63 1
    69   35   64 1
    70   35   65 1
    71   36   66 1
@<TRIPOS>MOLECULE
CHEMBL521871
   67    71     0     0     0
SMALL
USER_CHARGES

@<TRIPOS>ATOM
      1 C1          3.2376    4.1634    1.8195 C.3       1 <0>        -0.0478
      2 N1          2.8484    2.9460    1.0953 N.4       1 <0>        -0.3816
      3 C2          1.4860    3.1039    0.5691 C.3       1 <0>        -0.0547
      4 C3          3.7800    2.7194   -0.0177 C.3       1 <0>        -0.0444
      5 C4          3.4578    1.3825   -0.6884 C.3       1 <0>         0.0849
      6 C5          4.4427    1.1356   -1.8328 C.3       1 <0>         0.0308
      7 O1          4.0715   -0.0538   -2.5325 O.3       1 <0>        -0.3034
      8 C6          4.8497   -0.4185   -3.5863 C.ar      1 <0>         0.0967
      9 C7          5.9503    0.3506   -3.9342 C.ar      1 <0>        -0.1851
     10 C8          6.7412   -0.0191   -5.0043 C.ar      1 <0>        -0.0751
     11 C9          6.4342   -1.1611   -5.7321 C.ar      1 <0>         0.1461
     12 C10         5.3322   -1.9306   -5.3832 C.ar      1 <0>        -0.1090
     13 C11         4.5457   -1.5626   -4.3093 C.ar      1 <0>        -0.1199
     14 N2          7.2354   -1.5365   -6.8176 N.pl3     1 <0>        -0.6400
     15 C12         8.5965   -1.2811   -6.7948 C.ar      1 <0>         0.5663
     16 N3          9.1403   -0.7766   -5.6963 N.ar      1 <0>        -0.5718
     17 C13        10.4381   -0.5179   -5.6335 C.ar      1 <0>         0.1924
     18 C14        11.2340   -0.7792   -6.7320 C.ar      1 <0>        -0.2731
     19 C15        10.6330   -1.3122   -7.8794 C.ar      1 <0>         0.3178
     20 N4          9.3213   -1.5520   -7.8685 N.ar      1 <0>        -0.5722
     21 C16        11.4403   -1.6093   -9.0803 C.2       1 <0>        -0.1997
     22 C17        12.8177   -1.4187   -9.2235 C.2       1 <0>         0.0896
     23 N5         13.1749   -1.7970  -10.4292 N.2       1 <0>        -0.2447
     24 N6         12.0494   -2.2504  -11.1260 N.pl3     1 <0>        -0.1408
     25 C18        10.9698   -2.1421  -10.2916 C.2       1 <0>         0.0827
     26 C19         9.7013   -2.5378  -10.7394 C.2       1 <0>        -0.0040
     27 C20         9.5659   -3.0291  -12.0027 C.2       1 <0>        -0.1799
     28 C21        10.6912   -3.1336  -12.8386 C.2       1 <0>         0.4050
     29 N7         11.8775   -2.7541  -12.4210 N.2       1 <0>        -0.2988
     30 N8         10.5452   -3.6363  -14.1274 N.pl3     1 <0>        -0.5906
     31 C22        11.7158   -3.8596  -14.9906 C.3       1 <0>         0.0844
     32 C23        11.6394   -5.2848  -15.5498 C.3       1 <0>         0.0463
     33 O2         10.3586   -5.4859  -16.1524 O.3       1 <0>        -0.3749
     34 C24         9.2608   -5.3812  -15.2427 C.3       1 <0>         0.0458
     35 C25         9.2160   -3.9662  -14.6657 C.3       1 <0>         0.0853
     36 O3          3.5686    0.3293    0.2711 O.3       1 <0>        -0.5438
     37 H1          4.2136    4.0148    2.2817 H         1 <0>         0.1240
     38 H2          3.2892    4.9999    1.1227 H         1 <0>         0.1230
     39 H3          2.4990    4.3787    2.5916 H         1 <0>         0.1275
     40 H4          1.4552    3.9561   -0.1098 H         1 <0>         0.1237
     41 H5          1.1972    2.2006    0.0317 H         1 <0>         0.1258
     42 H6          0.7947    3.2720    1.3949 H         1 <0>         0.1280
     43 H7          3.6793    3.5246   -0.7455 H         1 <0>         0.1445
     44 H8          4.8015    2.6985    0.3621 H         1 <0>         0.1386
     45 H9          2.4419    1.4094   -1.0827 H         1 <0>         0.1346
     46 H10         4.4220    1.9822   -2.5190 H         1 <0>         0.0799
     47 H11         5.4483    1.0203   -1.4283 H         1 <0>         0.0759
     48 H12         6.1887    1.2391   -3.3683 H         1 <0>         0.1249
     49 H13         7.5979    0.5801   -5.2752 H         1 <0>         0.1416
     50 H14         5.0927   -2.8188   -5.9489 H         1 <0>         0.1358
     51 H15         3.6911   -2.1634   -4.0351 H         1 <0>         0.1361
     52 H16         6.8371   -1.9753   -7.5855 H         1 <0>         0.4233
     53 H17        10.8694   -0.1065   -4.7329 H         1 <0>         0.1709
     54 H18        12.2946   -0.5771   -6.7067 H         1 <0>         0.1487
     55 H19        13.4796   -1.0250   -8.4665 H         1 <0>         0.2074
     56 H20         8.8421   -2.4544  -10.0904 H         1 <0>         0.1718
     57 H21         8.5953   -3.3382  -12.3615 H         1 <0>         0.1582
     58 H22        11.7090   -3.1423  -15.8113 H         1 <0>         0.0816
     59 H23        12.6294   -3.7425  -14.4077 H         1 <0>         0.1059
     60 H24        12.4197   -5.4247  -16.2979 H         1 <0>         0.1128
     61 H25        11.7774   -6.0015  -14.7402 H         1 <0>         0.0582
     62 H26         8.3300   -5.5905  -15.7698 H         1 <0>         0.1134
     63 H27         9.3902   -6.0983  -14.4320 H         1 <0>         0.0587
     64 H28         8.4749   -3.9197  -13.8677 H         1 <0>         0.0974
     65 H29         8.9531   -3.2599  -15.4531 H         1 <0>         0.0866
     66 H30         4.4481    0.2466    0.6644 H         1 <0>         0.3902
     67 H31         2.8769    2.1572    1.7237 H         1 <0>         0.4323
@<TRIPOS>BOND
     1    1    2 1
     2    1   37 1
     3    1   38 1
     4    1   39 1
     5    2    3 1
     6    2    4 1
     7    2   67 1
     8    3   40 1
     9    3   41 1
    10    3   42 1
    11    4    5 1
    12    4   43 1
    13    4   44 1
    14    5    6 1
    15    5   36 1
    16    5   45 1
    17    6    7 1
    18    6   46 1
    19    6   47 1
    20    7    8 1
    21    8   13 ar
    22    8    9 ar
    23    9   10 ar
    24    9   48 1
    25   10   11 ar
    26   10   49 1
    27   11   12 ar
    28   11   14 1
    29   12   13 ar
    30   12   50 1
    31   13   51 1
    32   14   15 1
    33   14   52 1
    34   15   20 ar
    35   15   16 ar
    36   16   17 ar
    37   17   18 ar
    38   17   53 1
    39   18   19 ar
    40   18   54 1
    41   19   20 ar
    42   19   21 1
    43   21   25 2
    44   21   22 1
    45   22   23 2
    46   22   55 1
    47   23   24 1
    48   24   29 1
    49   24   25 1
    50   25   26 1
    51   26   27 2
    52   26   56 1
    53   27   28 1
    54   27   57 1
    55   28   29 2
    56   28   30 1
    57   30   35 1
    58   30   31 1
    59   31   32 1
    60   31   58 1
    61   31   59 1
    62   32   33 1
    63   32   60 1
    64   32   61 1
    65   33   34 1
    66   34   35 1
    67   34   62 1
    68   34   63 1
    69   35   64 1
    70   35   65 1
    71   36   66 1
@<TRIPOS>MOLECULE
CHEMBL149168
   51    55     0     0     0
SMALL
USER_CHARGES

@<TRIPOS>ATOM
      1 C1         -0.1641    1.5036   -0.4544 C.3       1 <0>        -0.1745
      2 C2         -0.1515   -0.0029   -0.4897 C.2       1 <0>         0.5152
      3 O1          0.7645   -0.5893   -1.0262 O.2       1 <0>        -0.5213
      4 N1         -1.1583   -0.6986    0.0749 N.am      1 <0>        -0.6707
      5 C3         -1.1939   -2.0848   -0.0362 C.ar      1 <0>         0.2241
      6 C4         -0.0056   -2.8196   -0.0391 C.ar      1 <0>        -0.1174
      7 C5         -0.0406   -4.1914   -0.1485 C.ar      1 <0>        -0.0680
      8 C6         -1.2533   -4.8610   -0.2572 C.ar      1 <0>        -0.1077
      9 C7         -2.4443   -4.1506   -0.2564 C.ar      1 <0>         0.0096
     10 C8         -2.4156   -2.7481   -0.1394 C.ar      1 <0>        -0.1880
     11 C9         -3.8169   -2.2710   -0.1603 C.2       1 <0>         0.4851
     12 O2         -4.1885   -1.1165   -0.0852 O.2       1 <0>        -0.4319
     13 C10        -4.6776   -3.4641   -0.2902 C.2       1 <0>        -0.3154
     14 C11        -3.8587   -4.5839   -0.3558 C.2       1 <0>         0.1546
     15 N2         -4.6625   -5.6622   -0.4781 N.pl3     1 <0>        -0.4259
     16 H1         -4.3674   -6.5844   -0.5368 H         1 <0>         0.4459
     17 N3         -5.9921   -5.2272   -0.5056 N.2       1 <0>        -0.2759
     18 C12        -6.0158   -3.9161   -0.3817 C.2       1 <0>         0.2096
     19 C13        -7.2276   -3.0634   -0.3651 C.ar      1 <0>        -0.1003
     20 C14        -7.2578   -1.9076    0.4152 C.ar      1 <0>        -0.0221
     21 C15        -8.3859   -1.1161    0.4290 C.ar      1 <0>        -0.2032
     22 C16        -9.4937   -1.4692   -0.3337 C.ar      1 <0>         0.2392
     23 C17        -9.4661   -2.6212   -1.1120 C.ar      1 <0>        -0.2072
     24 C18        -8.3378   -3.4122   -1.1343 C.ar      1 <0>        -0.0309
     25 N4        -10.6346   -0.6667   -0.3177 N.pl3     1 <0>        -0.6238
     26 C19       -10.6359    0.6185    0.3941 C.3       1 <0>         0.1175
     27 C20       -11.0893    1.7171   -0.5725 C.3       1 <0>        -0.1374
     28 C21       -12.4414    1.3324   -1.1776 C.3       1 <0>        -0.1198
     29 C22       -12.2976    0.0269   -1.9632 C.3       1 <0>        -0.1380
     30 C23       -11.8560   -1.0880   -1.0175 C.3       1 <0>         0.1173
     31 H2          0.7243    1.8862   -0.9570 H         1 <0>         0.0999
     32 H3         -1.0556    1.8715   -0.9623 H         1 <0>         0.0961
     33 H4         -0.1700    1.8427    0.5814 H         1 <0>         0.0950
     34 H5         -1.8581   -0.2327    0.5588 H         1 <0>         0.4218
     35 H6          0.9430   -2.3100    0.0445 H         1 <0>         0.1548
     36 H7          0.8825   -4.7520   -0.1503 H         1 <0>         0.1434
     37 H8         -1.2683   -5.9374   -0.3429 H         1 <0>         0.1355
     38 H9         -6.3979   -1.6333    1.0083 H         1 <0>         0.1268
     39 H10        -8.4098   -0.2211    1.0330 H         1 <0>         0.1276
     40 H11       -10.3279   -2.8938   -1.7031 H         1 <0>         0.1273
     41 H12        -8.3149   -4.3041   -1.7429 H         1 <0>         0.1260
     42 H13       -11.3236    0.5680    1.2383 H         1 <0>         0.0632
     43 H14        -9.6302    0.8390    0.7521 H         1 <0>         0.0851
     44 H15       -11.1871    2.6590   -0.0327 H         1 <0>         0.0740
     45 H16       -10.3529    1.8281   -1.3684 H         1 <0>         0.0671
     46 H17       -13.1712    1.1974   -0.3794 H         1 <0>         0.0635
     47 H18       -12.7779    2.1239   -1.8472 H         1 <0>         0.0649
     48 H19       -13.2554   -0.2342   -2.4133 H         1 <0>         0.0741
     49 H20       -11.5498    0.1538   -2.7460 H         1 <0>         0.0668
     50 H21       -11.6550   -1.9931   -1.5906 H         1 <0>         0.0849
     51 H22       -12.6453   -1.2808   -0.2909 H         1 <0>         0.0632
@<TRIPOS>BOND
     1    1    2 1
     2    1   31 1
     3    1   32 1
     4    1   33 1
     5    2    3 2
     6    2    4 am
     7    4    5 1
     8    4   34 1
     9    5   10 ar
    10    5    6 ar
    11    6    7 ar
    12    6   35 1
    13    7    8 ar
    14    7   36 1
    15    8    9 ar
    16    8   37 1
    17    9   14 1
    18    9   10 ar
    19   10   11 1
    20   11   12 2
    21   11   13 1
    22   13   18 1
    23   13   14 2
    24   14   15 1
    25   15   16 1
    26   15   17 1
    27   17   18 2
    28   18   19 1
    29   19   24 ar
    30   19   20 ar
    31   20   21 ar
    32   20   38 1
    33   21   22 ar
    34   21   39 1
    35   22   23 ar
    36   22   25 1
    37   23   24 ar
    38   23   40 1
    39   24   41 1
    40   25   30 1
    41   25   26 1
    42   26   27 1
    43   26   42 1
    44   26   43 1
    45   27   28 1
    46   27   44 1
    47   27   45 1
    48   28   29 1
    49   28   46 1
    50   28   47 1
    51   29   30 1
    52   29   48 1
    53   29   49 1
    54   30   50 1
    55   30   51 1
@<TRIPOS>MOLECULE
CHEMBL149168
   51    55     0     0     0
SMALL
USER_CHARGES

@<TRIPOS>ATOM
      1 C1         -0.1663    1.4934    0.6229 C.3       1 <0>        -0.1749
      2 C2         -0.1524   -0.0135    0.6202 C.2       1 <0>         0.5133
      3 O1          0.7625   -0.6124    1.1446 O.2       1 <0>        -0.5188
      4 N1         -1.1567   -0.6957    0.0350 N.am      1 <0>        -0.6679
      5 C3         -1.0875   -2.0823   -0.0706 C.ar      1 <0>         0.2241
      6 C4          0.1484   -2.7212   -0.0719 C.ar      1 <0>        -0.1334
      7 C5          0.2203   -4.0949   -0.1759 C.ar      1 <0>        -0.0629
      8 C6         -0.9340   -4.8538   -0.2805 C.ar      1 <0>        -0.1098
      9 C7         -2.1787   -4.2377   -0.2813 C.ar      1 <0>         0.0427
     10 C8         -2.2621   -2.8385   -0.1699 C.ar      1 <0>        -0.1943
     11 C9         -3.6848   -2.4423   -0.1881 C.2       1 <0>         0.4929
     12 O2         -4.1144   -1.3062   -0.1151 O.2       1 <0>        -0.4484
     13 C10        -4.4877   -3.6660   -0.3106 C.2       1 <0>        -0.3390
     14 C11        -3.5520   -4.7916   -0.3790 C.2       1 <0>         0.1255
     15 N2         -4.2643   -5.8851   -0.4927 N.2       1 <0>        -0.2380
     16 H1         -6.3523   -6.1917   -0.5994 H         1 <0>         0.4476
     17 N3         -5.6232   -5.5567   -0.5209 N.pl3     1 <0>        -0.4685
     18 C12        -5.7639   -4.2065   -0.3967 C.2       1 <0>         0.2536
     19 C13        -7.0340   -3.4572   -0.3817 C.ar      1 <0>        -0.1311
     20 C14        -7.2307   -2.4302    0.5465 C.ar      1 <0>        -0.0111
     21 C15        -8.4174   -1.7324    0.5574 C.ar      1 <0>        -0.2023
     22 C16        -9.4208   -2.0485   -0.3537 C.ar      1 <0>         0.2468
     23 C17        -9.2284   -3.0701   -1.2789 C.ar      1 <0>        -0.2051
     24 C18        -8.0420   -3.7682   -1.2993 C.ar      1 <0>        -0.0392
     25 N4        -10.6204   -1.3411   -0.3392 N.pl3     1 <0>        -0.6198
     26 C19       -10.7957   -0.1827    0.5474 C.3       1 <0>         0.1154
     27 C20       -11.2505    1.0158   -0.2914 C.3       1 <0>        -0.1376
     28 C21       -12.5041    0.6339   -1.0818 C.3       1 <0>        -0.1204
     29 C22       -12.1791   -0.5233   -2.0292 C.3       1 <0>        -0.1382
     30 C23       -11.7327   -1.7355   -1.2145 C.3       1 <0>         0.1157
     31 H2          0.7200    1.8640    1.1377 H         1 <0>         0.1000
     32 H3         -0.1693    1.8585   -0.4042 H         1 <0>         0.0952
     33 H4         -1.0599    1.8476    1.1369 H         1 <0>         0.0948
     34 H5         -1.9276   -0.2207   -0.3127 H         1 <0>         0.4224
     35 H6          1.0548   -2.1395    0.0084 H         1 <0>         0.1585
     36 H7          1.1840   -4.5825   -0.1760 H         1 <0>         0.1422
     37 H8         -0.8657   -5.9285   -0.3621 H         1 <0>         0.1379
     38 H9         -6.4527   -2.1848    1.2542 H         1 <0>         0.1284
     39 H10        -8.5700   -0.9390    1.2740 H         1 <0>         0.1309
     40 H11       -10.0093   -3.3131   -1.9843 H         1 <0>         0.1302
     41 H12        -7.8916   -4.5579   -2.0205 H         1 <0>         0.1237
     42 H13       -11.5508   -0.4095    1.3000 H         1 <0>         0.0656
     43 H14        -9.8492    0.0507    1.0351 H         1 <0>         0.0861
     44 H15       -11.4767    1.8552    0.3661 H         1 <0>         0.0756
     45 H16       -10.4565    1.2983   -0.9828 H         1 <0>         0.0678
     46 H17       -13.2897    0.3278   -0.3910 H         1 <0>         0.0641
     47 H18       -12.8441    1.4926   -1.6607 H         1 <0>         0.0663
     48 H19       -13.0661   -0.7793   -2.6085 H         1 <0>         0.0755
     49 H20       -11.3764   -0.2263   -2.7042 H         1 <0>         0.0673
     50 H21       -11.4042   -2.5263   -1.8890 H         1 <0>         0.0852
     51 H22       -12.5658   -2.0917   -0.6087 H         1 <0>         0.0654
@<TRIPOS>BOND
     1    1    2 1
     2    1   31 1
     3    1   32 1
     4    1   33 1
     5    2    3 2
     6    2    4 am
     7    4    5 1
     8    4   34 1
     9    5   10 ar
    10    5    6 ar
    11    6    7 ar
    12    6   35 1
    13    7    8 ar
    14    7   36 1
    15    8    9 ar
    16    8   37 1
    17    9   14 1
    18    9   10 ar
    19   10   11 1
    20   11   12 2
    21   11   13 1
    22   13   14 1
    23   13   18 2
    24   14   15 2
    25   15   17 1
    26   16   17 1
    27   17   18 1
    28   18   19 1
    29   19   24 ar
    30   19   20 ar
    31   20   21 ar
    32   20   38 1
    33   21   22 ar
    34   21   39 1
    35   22   23 ar
    36   22   25 1
    37   23   24 ar
    38   23   40 1
    39   24   41 1
    40   25   30 1
    41   25   26 1
    42   26   27 1
    43   26   42 1
    44   26   43 1
    45   27   28 1
    46   27   44 1
    47   27   45 1
    48   28   29 1
    49   28   46 1
    50   28   47 1
    51   29   30 1
    52   29   48 1
    53   29   49 1
    54   30   50 1
    55   30   51 1
@<TRIPOS>MOLECULE
CHEMBL205197
   82    84     0     0     0
SMALL
USER_CHARGES

@<TRIPOS>ATOM
      1 C1         -0.9454    1.3083    0.5347 C.3       1 <0>        -0.1616
      2 C2         -0.5467   -0.1271    0.1861 C.3       1 <0>         0.1267
      3 H1         -0.0558   -0.1417   -0.7870 H         1 <0>         0.1213
      4 C3          0.3994   -0.6543    1.2340 C.2       1 <0>         0.5179
      5 O1          0.1024   -1.6368    1.8800 O.2       1 <0>        -0.5334
      6 N1          1.5755   -0.0338    1.4534 N.am      1 <0>        -0.7053
      7 C4          2.4457   -0.4781    2.5449 C.3       1 <0>         0.1265
      8 H2          1.8360   -0.8679    3.3600 H         1 <0>         0.1154
      9 C5          3.3806   -1.5775    2.0366 C.3       1 <0>        -0.1213
     10 C6          4.1973   -2.1330    3.2051 C.3       1 <0>        -0.1059
     11 C7          3.2671   -2.8627    4.1762 C.3       1 <0>        -0.1543
     12 C8          5.2480   -3.1101    2.6739 C.3       1 <0>        -0.1459
     13 C9          3.2632    0.6865    3.0415 C.2       1 <0>         0.5169
     14 O2          3.4033    1.6697    2.3454 O.2       1 <0>        -0.5301
     15 N2          3.8385    0.6354    4.2593 N.am      1 <0>        -0.7172
     16 C10         4.5431    1.8067    4.7862 C.3       1 <0>         0.1552
     17 H3          4.0357    2.7139    4.4582 H         1 <0>         0.0926
     18 C11         5.9826    1.8118    4.2680 C.3       1 <0>        -0.1296
     19 C12         6.7185    3.0351    4.8184 C.3       1 <0>        -0.1186
     20 C13         6.7270    2.9800    6.3473 C.3       1 <0>        -0.1230
     21 C14         5.2875    2.9749    6.8655 C.3       1 <0>        -0.1076
     22 C15         4.5516    1.7516    6.3152 C.3       1 <0>        -0.0553
     23 H4          5.0591    0.8444    6.6432 H         1 <0>         0.0879
     24 C16         3.1337    1.7466    6.8256 C.ar      1 <0>        -0.0636
     25 C17         2.2888    2.8002    6.5294 C.ar      1 <0>        -0.1068
     26 C18         0.9881    2.7963    6.9971 C.ar      1 <0>        -0.1022
     27 C19         0.5315    1.7392    7.7619 C.ar      1 <0>        -0.1139
     28 C20         1.3764    0.6848    8.0587 C.ar      1 <0>        -0.0304
     29 C21         2.6766    0.6864    7.5849 C.ar      1 <0>        -0.1100
     30 Cl1         0.8037   -0.6431    9.0190 Cl        1 <0>        -0.0678
     31 N3         -1.7445   -0.9695    0.1414 N.am      1 <0>        -0.7050
     32 C22        -2.4793   -1.0369   -0.9864 C.2       1 <0>         0.5560
     33 O3         -2.1481   -0.3988   -1.9665 O.2       1 <0>        -0.5220
     34 C23        -3.6880   -1.8871   -1.0315 C.ar      1 <0>        -0.0998
     35 C24        -4.0742   -2.6166    0.0941 C.ar      1 <0>        -0.0844
     36 C25        -5.2035   -3.4075    0.0455 C.ar      1 <0>        -0.0960
     37 C26        -5.9523   -3.4790   -1.1157 C.ar      1 <0>        -0.1191
     38 C27        -5.5748   -2.7587   -2.2351 C.ar      1 <0>        -0.0964
     39 C28        -4.4512   -1.9591   -2.1979 C.ar      1 <0>        -0.0583
     40 C29        -7.1845   -4.3455   -1.1616 C.3       1 <0>         0.1319
     41 N4         -8.3497   -3.5598   -0.7480 N.pl3     1 <0>        -0.6544
     42 C30        -9.5295   -4.1127   -0.7132 C.cat     1 <0>         0.7383
     43 N5         -9.6804   -5.4333   -1.0645 N.pl3     1 <0>        -0.8124
     44 N6        -10.6231   -3.3754   -0.3251 N.pl3     1 <0>        -0.8143
     45 H5         -0.0543    1.9350    0.5679 H         1 <0>         0.0793
     46 H6         -1.6297    1.6895   -0.2233 H         1 <0>         0.0776
     47 H7         -1.4364    1.3229    1.5077 H         1 <0>         0.0654
     48 H8          1.8458    0.7070    0.8885 H         1 <0>         0.4146
     49 H9          2.7908   -2.3791    1.5920 H         1 <0>         0.0836
     50 H10         4.0545   -1.1633    1.2867 H         1 <0>         0.0744
     51 H11         4.6934   -1.3128    3.7240 H         1 <0>         0.0759
     52 H12         2.8274   -3.7268    3.6782 H         1 <0>         0.0615
     53 H13         3.8363   -3.1945    5.0445 H         1 <0>         0.0604
     54 H14         2.4749   -2.1866    4.4978 H         1 <0>         0.0537
     55 H15         5.9107   -2.5903    1.9820 H         1 <0>         0.0562
     56 H16         5.8299   -3.5059    3.5063 H         1 <0>         0.0598
     57 H17         4.7520   -3.9303    2.1549 H         1 <0>         0.0569
     58 H18         3.7861   -0.1770    4.7868 H         1 <0>         0.4024
     59 H19         6.4901    0.9046    4.5960 H         1 <0>         0.0664
     60 H20         5.9765    1.8511    3.1787 H         1 <0>         0.0724
     61 H21         7.7441    3.0387    4.4492 H         1 <0>         0.0688
     62 H22         6.2111    3.9423    4.4903 H         1 <0>         0.0656
     63 H23         7.2345    2.0728    6.6754 H         1 <0>         0.0656
     64 H24         7.2513    3.8515    6.7394 H         1 <0>         0.0696
     65 H25         5.2936    2.9357    7.9548 H         1 <0>         0.0729
     66 H26         4.7801    3.8821    6.5375 H         1 <0>         0.0693
     67 H27         2.6453    3.6266    5.9325 H         1 <0>         0.1272
     68 H28         0.3286    3.6195    6.7654 H         1 <0>         0.1317
     69 H29        -0.4845    1.7366    8.1280 H         1 <0>         0.1320
     70 H30         3.3353   -0.1386    7.8126 H         1 <0>         0.1325
     71 H31        -2.0087   -1.4788    0.9236 H         1 <0>         0.4096
     72 H32        -3.4901   -2.5622    1.0009 H         1 <0>         0.1379
     73 H33        -5.5034   -3.9725    0.9157 H         1 <0>         0.1362
     74 H34        -6.1635   -2.8191   -3.1385 H         1 <0>         0.1372
     75 H35        -4.1602   -1.3936   -3.0708 H         1 <0>         0.1479
     76 H36        -7.3343   -4.7104   -2.1777 H         1 <0>         0.1107
     77 H37        -7.0588   -5.1919   -0.4864 H         1 <0>         0.1105
     78 H38        -8.9089   -5.9535   -1.3384 H         1 <0>         0.4375
     79 H39       -10.5585   -5.8448   -1.0386 H         1 <0>         0.4388
     80 H40       -10.5166   -2.4436   -0.0772 H         1 <0>         0.4385
     81 H41       -11.5011   -3.7869   -0.2992 H         1 <0>         0.4391
     82 H42        -8.2433   -2.6280   -0.5002 H         1 <0>         0.4400
@<TRIPOS>BOND
     1    1    2 1
     2    1   45 1
     3    1   46 1
     4    1   47 1
     5    2    3 1
     6    2    4 1
     7    2   31 1
     8    4    5 2
     9    4    6 am
    10    6    7 1
    11    6   48 1
    12    7    8 1
    13    7    9 1
    14    7   13 1
    15    9   10 1
    16    9   49 1
    17    9   50 1
    18   10   11 1
    19   10   12 1
    20   10   51 1
    21   11   52 1
    22   11   53 1
    23   11   54 1
    24   12   55 1
    25   12   56 1
    26   12   57 1
    27   13   14 2
    28   13   15 am
    29   15   16 1
    30   15   58 1
    31   16   17 1
    32   16   22 1
    33   16   18 1
    34   18   19 1
    35   18   59 1
    36   18   60 1
    37   19   20 1
    38   19   61 1
    39   19   62 1
    40   20   21 1
    41   20   63 1
    42   20   64 1
    43   21   22 1
    44   21   65 1
    45   21   66 1
    46   22   23 1
    47   22   24 1
    48   24   29 ar
    49   24   25 ar
    50   25   26 ar
    51   25   67 1
    52   26   27 ar
    53   26   68 1
    54   27   28 ar
    55   27   69 1
    56   28   29 ar
    57   28   30 1
    58   29   70 1
    59   31   32 am
    60   31   71 1
    61   32   33 2
    62   32   34 1
    63   34   39 ar
    64   34   35 ar
    65   35   36 ar
    66   35   72 1
    67   36   37 ar
    68   36   73 1
    69   37   38 ar
    70   37   40 1
    71   38   39 ar
    72   38   74 1
    73   39   75 1
    74   40   41 1
    75   40   76 1
    76   40   77 1
    77   41   42 2
    78   41   82 1
    79   42   43 1
    80   42   44 1
    81   43   78 1
    82   43   79 1
    83   44   80 1
    84   44   81 1
@<TRIPOS>MOLECULE
CHEMBL422455
   42    45     0     0     0
SMALL
USER_CHARGES

@<TRIPOS>ATOM
      1 C1         -0.9844   -0.2182   -0.6714 C.3       1 <0>         0.0773
      2 N1         -1.3513   -0.8231   -1.9543 N.pl3     1 <0>        -1.1214
      3 S1         -0.1988   -1.0532   -3.1209 S.o2      1 <0>         2.6046
      4 O1         -0.9005   -1.6260   -4.2158 O.2       1 <0>        -0.9488
      5 O2          0.4419    0.2085   -3.2514 O.2       1 <0>        -0.9473
      6 C2          0.9480   -2.2659   -2.4105 C.3       1 <0>        -0.5881
      7 C3          2.0500   -2.5534   -3.3975 C.ar      1 <0>        -0.0875
      8 C4          1.8985   -3.5728   -4.3210 C.ar      1 <0>        -0.1058
      9 C5          2.9027   -3.8416   -5.2273 C.ar      1 <0>        -0.0867
     10 C6          4.0749   -3.0815   -5.2118 C.ar      1 <0>         0.0031
     11 C7          4.2207   -2.0535   -4.2768 C.ar      1 <0>        -0.1068
     12 C8          3.2060   -1.7930   -3.3797 C.ar      1 <0>        -0.0963
     13 N2          5.0752   -3.3427   -6.1073 N.2       1 <0>        -0.1460
     14 N3          5.4520   -2.4303   -6.9376 N.2       1 <0>        -0.0695
     15 C9          4.8998   -1.2004   -6.8848 C.2       1 <0>        -0.1110
     16 C10         5.6129    0.0831   -6.7416 C.ar      1 <0>        -0.0061
     17 C11         4.6216    1.0773   -6.7361 C.ar      1 <0>         0.1182
     18 C12         5.0043    2.4128   -6.6112 C.ar      1 <0>        -0.0981
     19 C13         6.3095    2.7709   -6.4957 C.ar      1 <0>        -0.0362
     20 C14         7.3381    1.7995   -6.4974 C.ar      1 <0>         0.0724
     21 C15         6.9429    0.4521   -6.6231 C.ar      1 <0>        -0.1279
     22 S2          8.5001   -0.3958   -6.5790 S.3       1 <0>         0.1321
     23 C16         9.4963    0.9503   -6.4112 C.2       1 <0>         0.0585
     24 N4          8.6744    1.9586   -6.3949 N.2       1 <0>        -0.5046
     25 N5          3.3937    0.4550   -6.8658 N.pl3     1 <0>        -0.5625
     26 H1          2.5403    0.9155   -6.8907 H         1 <0>         0.4277
     27 C17         3.5505   -0.8921   -6.9604 C.2       1 <0>         0.2984
     28 O3          2.5483   -1.7897   -7.1021 O.3       1 <0>        -0.4524
     29 H2         -0.2323   -0.8357   -0.1804 H         1 <0>         0.0603
     30 H3         -0.5802    0.7795   -0.8425 H         1 <0>         0.0712
     31 H4         -1.8679   -0.1483   -0.0368 H         1 <0>         0.0875
     32 H5         -2.2693   -1.0888   -2.1203 H         1 <0>         0.4212
     33 H6          1.3779   -1.8651   -1.4926 H         1 <0>         0.1449
     34 H7          0.4103   -3.1874   -2.1877 H         1 <0>         0.1488
     35 H8          0.9918   -4.1595   -4.3318 H         1 <0>         0.1470
     36 H9          2.7834   -4.6380   -5.9471 H         1 <0>         0.1495
     37 H10         5.1242   -1.4621   -4.2589 H         1 <0>         0.1348
     38 H11         3.3156   -0.9960   -2.6590 H         1 <0>         0.1402
     39 H12         4.2447    3.1806   -6.6065 H         1 <0>         0.1421
     40 H13         6.5666    3.8156   -6.4012 H         1 <0>         0.1452
     41 H14        10.5734    0.9721   -6.3353 H         1 <0>         0.2243
     42 H15         2.1239   -2.0400   -6.2700 H         1 <0>         0.3937
@<TRIPOS>BOND
     1    1    2 1
     2    1   29 1
     3    1   30 1
     4    1   31 1
     5    2    3 1
     6    2   32 1
     7    3    4 2
     8    3    5 2
     9    3    6 1
    10    6    7 1
    11    6   33 1
    12    6   34 1
    13    7   12 ar
    14    7    8 ar
    15    8    9 ar
    16    8   35 1
    17    9   10 ar
    18    9   36 1
    19   10   11 ar
    20   10   13 1
    21   11   12 ar
    22   11   37 1
    23   12   38 1
    24   13   14 2
    25   14   15 1
    26   15   27 2
    27   15   16 1
    28   16   21 ar
    29   16   17 ar
    30   17   18 ar
    31   17   25 1
    32   18   19 ar
    33   18   39 1
    34   19   20 ar
    35   19   40 1
    36   20   24 1
    37   20   21 ar
    38   21   22 1
    39   22   23 1
    40   23   24 2
    41   23   41 1
    42   25   26 1
    43   25   27 1
    44   27   28 1
    45   28   42 1
@<TRIPOS>MOLECULE
CHEMBL422455
   42    45     0     0     0
SMALL
USER_CHARGES

@<TRIPOS>ATOM
      1 C1         -0.0178    1.4608    0.0101 C.3       1 <0>         0.0786
      2 N1          0.0021   -0.0041    0.0020 N.pl3     1 <0>        -1.1240
      3 S1          0.7184   -0.8155   -1.2513 S.o2      1 <0>         2.6086
      4 O1          0.5323   -2.1909   -0.9462 O.2       1 <0>        -0.9499
      5 O2          0.1475   -0.2497   -2.4231 O.2       1 <0>        -0.9462
      6 C2          2.4769   -0.3837   -1.1417 C.3       1 <0>        -0.5850
      7 C3          3.2335   -1.0745   -2.2469 C.ar      1 <0>        -0.0822
      8 C4          3.7614   -2.3362   -2.0358 C.ar      1 <0>        -0.1047
      9 C5          4.4550   -2.9745   -3.0426 C.ar      1 <0>        -0.0657
     10 C6          4.6238   -2.3443   -4.2781 C.ar      1 <0>         0.0733
     11 C7          4.0877   -1.0706   -4.4842 C.ar      1 <0>        -0.1085
     12 C8          3.3922   -0.4465   -3.4697 C.ar      1 <0>        -0.1030
     13 N2          5.3109   -2.9710   -5.2809 N.2       1 <0>        -0.2471
     14 N3          5.4649   -2.3864   -6.4205 N.2       1 <0>        -0.1620
     15 C9          6.1426   -3.0047   -7.4097 C.2       1 <0>        -0.0336
     16 C10         6.4119   -2.4765   -8.7606 C.ar      1 <0>         0.0010
     17 C11         7.1450   -3.4722   -9.4257 C.ar      1 <0>         0.1098
     18 C12         7.5469   -3.2497  -10.7428 C.ar      1 <0>        -0.0974
     19 C13         7.2461   -2.0956  -11.3929 C.ar      1 <0>        -0.0384
     20 C14         6.5098   -1.0679  -10.7577 C.ar      1 <0>         0.0725
     21 C15         6.1067   -1.3010   -9.4271 C.ar      1 <0>        -0.1241
     22 S2          5.2395    0.1958   -9.0357 S.3       1 <0>         0.1314
     23 C16         5.4371    0.9756  -10.5141 C.2       1 <0>         0.0588
     24 N4          6.1196    0.1334  -11.2332 N.2       1 <0>        -0.5061
     25 N5          7.3142   -4.5311   -8.5528 N.pl3     1 <0>        -0.5652
     26 H1          7.7881   -5.3509   -8.7633 H         1 <0>         0.4253
     27 C17         6.7291   -4.2595   -7.3561 C.2       1 <0>         0.3278
     28 O3          6.7179   -5.0846   -6.2841 O.3       1 <0>        -0.4404
     29 H2          1.0048    1.8381    0.0023 H         1 <0>         0.0596
     30 H3         -0.5450    1.8219   -0.8730 H         1 <0>         0.0705
     31 H4         -0.5280    1.8123    0.9069 H         1 <0>         0.0851
     32 H5         -0.4044   -0.4986    0.7308 H         1 <0>         0.4197
     33 H6          2.5929    0.6955   -1.2415 H         1 <0>         0.1421
     34 H7          2.8702   -0.7038   -0.1769 H         1 <0>         0.1448
     35 H8          3.6301   -2.8221   -1.0802 H         1 <0>         0.1392
     36 H9          4.8670   -3.9588   -2.8762 H         1 <0>         0.1409
     37 H10         4.2146   -0.5774   -5.4366 H         1 <0>         0.1418
     38 H11         2.9737    0.5364   -3.6289 H         1 <0>         0.1347
     39 H12         8.1109   -4.0132  -11.2579 H         1 <0>         0.1412
     40 H13         7.5751   -1.9600  -12.4125 H         1 <0>         0.1447
     41 H14         5.0791    1.9535  -10.8004 H         1 <0>         0.2240
     42 H15         5.9628   -5.6882   -6.2602 H         1 <0>         0.4082
@<TRIPOS>BOND
     1    1    2 1
     2    1   29 1
     3    1   30 1
     4    1   31 1
     5    2    3 1
     6    2   32 1
     7    3    4 2
     8    3    5 2
     9    3    6 1
    10    6    7 1
    11    6   33 1
    12    6   34 1
    13    7   12 ar
    14    7    8 ar
    15    8    9 ar
    16    8   35 1
    17    9   10 ar
    18    9   36 1
    19   10   11 ar
    20   10   13 1
    21   11   12 ar
    22   11   37 1
    23   12   38 1
    24   13   14 2
    25   14   15 1
    26   15   27 2
    27   15   16 1
    28   16   21 ar
    29   16   17 ar
    30   17   18 ar
    31   17   25 1
    32   18   19 ar
    33   18   39 1
    34   19   20 ar
    35   19   40 1
    36   20   24 1
    37   20   21 ar
    38   21   22 1
    39   22   23 1
    40   23   24 2
    41   23   41 1
    42   25   26 1
    43   25   27 1
    44   27   28 1
    45   28   42 1
@<TRIPOS>MOLECULE
CHEMBL356728
   36    39     0     0     0
SMALL
USER_CHARGES

@<TRIPOS>ATOM
      1 C1         -0.0038    1.4536    0.0568 C.3       1 <0>         0.0684
      2 N1          0.0139   -0.0111    0.0373 N.pl3     1 <0>        -0.4471
      3 C2          0.0119   -0.7774   -1.0912 C.2       1 <0>        -0.0092
      4 C3          0.0313   -2.0751   -0.7369 C.2       1 <0>        -0.1463
      5 C4          0.0464   -2.1065    0.7287 C.2       1 <0>        -0.1582
      6 C5          0.0404   -0.8021    1.1381 C.2       1 <0>         0.0365
      7 C6          0.0696   -3.3037    1.5881 C.2       1 <0>         0.2818
      8 C7         -0.7047   -4.4466    1.4306 C.2       1 <0>        -0.3364
      9 C8         -0.3329   -5.3561    2.5185 C.2       1 <0>         0.1257
     10 N2          0.5872   -4.7557    3.2314 N.2       1 <0>        -0.2406
     11 N3          0.8589   -3.4988    2.6822 N.pl3     1 <0>        -0.4714
     12 H1          1.5060   -2.8639    3.0274 H         1 <0>         0.4463
     13 C9         -1.1493   -6.5863    2.3706 C.ar      1 <0>         0.0434
     14 C10        -1.2008   -7.7554    3.1193 C.ar      1 <0>        -0.1115
     15 C11        -2.0678   -8.7747    2.7629 C.ar      1 <0>        -0.0631
     16 C12        -2.8896   -8.6429    1.6621 C.ar      1 <0>        -0.1326
     17 C13        -2.8551   -7.4818    0.8974 C.ar      1 <0>         0.2431
     18 C14        -1.9831   -6.4430    1.2478 C.ar      1 <0>        -0.1958
     19 C15        -1.7356   -5.1224    0.6347 C.2       1 <0>         0.4934
     20 O1         -2.2882   -4.6747   -0.3529 O.2       1 <0>        -0.4497
     21 N4         -3.6852   -7.3521   -0.2129 N.am      1 <0>        -0.6762
     22 C16        -4.8317   -8.0570   -0.2832 C.2       1 <0>         0.7078
     23 O2         -5.1925   -8.7270    0.6650 O.2       1 <0>        -0.5712
     24 N5         -5.5784   -8.0192   -1.4046 N.am      1 <0>        -0.8565
     25 H2          1.0192    1.8295    0.0460 H         1 <0>         0.0770
     26 H3         -0.5357    1.8223   -0.8203 H         1 <0>         0.0882
     27 H4         -0.5082    1.7989    0.9593 H         1 <0>         0.0858
     28 H5         -0.0033   -0.4033   -2.1042 H         1 <0>         0.1704
     29 H6          0.0348   -2.9263   -1.4015 H         1 <0>         0.1475
     30 H7          0.0518   -0.4604    2.1626 H         1 <0>         0.1689
     31 H8         -0.5617   -7.8700    3.9824 H         1 <0>         0.1372
     32 H9         -2.1009   -9.6800    3.3509 H         1 <0>         0.1416
     33 H10        -3.5616   -9.4445    1.3933 H         1 <0>         0.1612
     34 H11        -3.4382   -6.7544   -0.9359 H         1 <0>         0.4182
     35 H12        -5.2905   -7.4847   -2.1611 H         1 <0>         0.4019
     36 H13        -6.4036   -8.5265   -1.4552 H         1 <0>         0.4213
@<TRIPOS>BOND
     1    1    2 1
     2    1   25 1
     3    1   26 1
     4    1   27 1
     5    2    6 1
     6    2    3 1
     7    3    4 2
     8    3   28 1
     9    4    5 1
    10    4   29 1
    11    5    6 2
    12    5    7 1
    13    6   30 1
    14    7   11 1
    15    7    8 2
    16    8   19 1
    17    8    9 1
    18    9   10 2
    19    9   13 1
    20   10   11 1
    21   11   12 1
    22   13   18 ar
    23   13   14 ar
    24   14   15 ar
    25   14   31 1
    26   15   16 ar
    27   15   32 1
    28   16   17 ar
    29   16   33 1
    30   17   18 ar
    31   17   21 1
    32   18   19 1
    33   19   20 2
    34   21   22 am
    35   21   34 1
    36   22   23 2
    37   22   24 am
    38   24   35 1
    39   24   36 1
@<TRIPOS>MOLECULE
CHEMBL356728
   36    39     0     0     0
SMALL
USER_CHARGES

@<TRIPOS>ATOM
      1 C1         -0.0049    1.4524    0.0542 C.3       1 <0>         0.0718
      2 N1          0.0137   -0.0123    0.0357 N.pl3     1 <0>        -0.4482
      3 C2          0.0117   -0.7905   -1.0853 C.2       1 <0>        -0.0184
      4 C3          0.0331   -2.0825   -0.7095 C.2       1 <0>        -0.1541
      5 C4          0.0493   -2.1097    0.7091 C.2       1 <0>        -0.1206
      6 C5          0.0418   -0.8158    1.1333 C.2       1 <0>         0.0321
      7 C6          0.0750   -3.3180    1.5669 C.2       1 <0>         0.2373
      8 C7         -0.5675   -4.5488    1.2920 C.2       1 <0>        -0.3104
      9 C8         -0.2876   -5.4052    2.3495 C.2       1 <0>         0.1526
     10 N2          0.4867   -4.7255    3.2220 N.pl3     1 <0>        -0.4274
     11 N3          0.7044   -3.4388    2.7175 N.2       1 <0>        -0.2821
     12 H1          0.8369   -5.0726    4.0574 H         1 <0>         0.4452
     13 C9         -0.9457   -6.7095    2.0974 C.ar      1 <0>         0.0142
     14 C10        -0.9824   -7.8880    2.8281 C.ar      1 <0>        -0.1140
     15 C11        -1.6899   -8.9838    2.3507 C.ar      1 <0>        -0.0650
     16 C12        -2.3616   -8.9151    1.1506 C.ar      1 <0>        -0.1272
     17 C13        -2.3373   -7.7383    0.3988 C.ar      1 <0>         0.2486
     18 C14        -1.6301   -6.6327    0.8700 C.ar      1 <0>        -0.1978
     19 C15        -1.4149   -5.2736    0.3245 C.2       1 <0>         0.4865
     20 O1         -1.8529   -4.8371   -0.7218 O.2       1 <0>        -0.4352
     21 N4         -3.0151   -7.6695   -0.8138 N.am      1 <0>        -0.6759
     22 C16        -4.0661   -8.4808   -1.0453 C.2       1 <0>         0.7083
     23 O2         -4.4859   -9.1997   -0.1593 O.2       1 <0>        -0.5709
     24 N5         -4.6518   -8.4952   -2.2591 N.am      1 <0>        -0.8552
     25 H2          1.0179    1.8290    0.0422 H         1 <0>         0.0753
     26 H3         -0.5377    1.8201   -0.8227 H         1 <0>         0.0859
     27 H4         -0.5088    1.7980    0.9569 H         1 <0>         0.0847
     28 H5         -0.0045   -0.4299   -2.1032 H         1 <0>         0.1665
     29 H6          0.0373   -2.9400   -1.3661 H         1 <0>         0.1422
     30 H7          0.0540   -0.4852    2.1614 H         1 <0>         0.1681
     31 H8         -0.4591   -7.9538    3.7706 H         1 <0>         0.1344
     32 H9         -1.7130   -9.8978    2.9256 H         1 <0>         0.1426
     33 H10        -2.9083   -9.7737    0.7896 H         1 <0>         0.1626
     34 H11        -2.7314   -7.0376   -1.4928 H         1 <0>         0.4191
     35 H12        -4.3169   -7.9216   -2.9660 H         1 <0>         0.4027
     36 H13        -5.4082   -9.0791   -2.4257 H         1 <0>         0.4220
@<TRIPOS>BOND
     1    1    2 1
     2    1   25 1
     3    1   26 1
     4    1   27 1
     5    2    6 1
     6    2    3 1
     7    3    4 2
     8    3   28 1
     9    4    5 1
    10    4   29 1
    11    5    6 2
    12    5    7 1
    13    6   30 1
    14    7    8 1
    15    7   11 2
    16    8   19 1
    17    8    9 2
    18    9   13 1
    19    9   10 1
    20   10   12 1
    21   10   11 1
    22   13   18 ar
    23   13   14 ar
    24   14   15 ar
    25   14   31 1
    26   15   16 ar
    27   15   32 1
    28   16   17 ar
    29   16   33 1
    30   17   18 ar
    31   17   21 1
    32   18   19 1
    33   19   20 2
    34   21   22 am
    35   21   34 1
    36   22   23 2
    37   22   24 am
    38   24   35 1
    39   24   36 1
@<TRIPOS>MOLECULE
CHEMBL434700
   32    35     0     0     0
SMALL
USER_CHARGES

@<TRIPOS>ATOM
      1 C1         -0.0300    1.3671    0.0423 C.ar      1 <0>        -0.0641
      2 C2          1.1536    2.0948    0.0382 C.ar      1 <0>        -0.1091
      3 C3          2.3751    1.4387    0.0144 C.ar      1 <0>         0.0102
      4 C4          2.4067    0.0314   -0.0056 C.ar      1 <0>        -0.1966
      5 C5          1.2138   -0.6900   -0.0005 C.ar      1 <0>         0.2512
      6 C6         -0.0060   -0.0092    0.0229 C.ar      1 <0>        -0.1237
      7 N1          1.2378   -2.0806   -0.0198 N.am      1 <0>        -0.6765
      8 C7          0.1846   -2.7661   -0.5071 C.2       1 <0>         0.7086
      9 O1         -0.7417   -2.1713   -1.0230 O.2       1 <0>        -0.5701
     10 N2          0.1584   -4.1110   -0.4226 N.am      1 <0>        -0.8545
     11 C8          3.8279   -0.3815   -0.0289 C.2       1 <0>         0.4851
     12 O2          4.2491   -1.5214   -0.0506 O.2       1 <0>        -0.4290
     13 C9          4.6367    0.8530   -0.0218 C.2       1 <0>        -0.3060
     14 C10         3.7707    1.9387    0.0040 C.2       1 <0>         0.1624
     15 N3          4.5277    3.0570    0.0098 N.pl3     1 <0>        -0.4182
     16 H1          4.1923    3.9669    0.0268 H         1 <0>         0.4509
     17 N4          5.8763    2.6850   -0.0123 N.2       1 <0>        -0.2506
     18 C11         5.9570    1.3685   -0.0306 C.2       1 <0>         0.2239
     19 C12         7.2002    0.5740   -0.0555 C.2       1 <0>         0.0351
     20 C13         8.3537    0.9153   -0.6923 C.2       1 <0>        -0.1539
     21 C14         9.2722   -0.1251   -0.4528 C.2       1 <0>        -0.2181
     22 C15         8.6420   -1.0408    0.3100 C.2       1 <0>        -0.0147
     23 O3          7.3928   -0.6125    0.5528 O.3       1 <0>        -0.1547
     24 H2         -0.9771    1.8856    0.0655 H         1 <0>         0.1446
     25 H3          1.1222    3.1742    0.0533 H         1 <0>         0.1364
     26 H4         -0.9325   -0.5641    0.0263 H         1 <0>         0.1642
     27 H5          2.0125   -2.5571    0.3174 H         1 <0>         0.4193
     28 H6          0.8975   -4.5855   -0.0110 H         1 <0>         0.4030
     29 H7         -0.5995   -4.6043   -0.7733 H         1 <0>         0.4225
     30 H8          8.5304    1.8106   -1.2699 H         1 <0>         0.1557
     31 H9         10.2891   -0.1793   -0.8125 H         1 <0>         0.1561
     32 H10         9.0722   -1.9637    0.6701 H         1 <0>         0.2105
@<TRIPOS>BOND
     1    1    6 ar
     2    1    2 ar
     3    1   24 1
     4    2    3 ar
     5    2   25 1
     6    3   14 1
     7    3    4 ar
     8    4    5 ar
     9    4   11 1
    10    5    6 ar
    11    5    7 1
    12    6   26 1
    13    7    8 am
    14    7   27 1
    15    8    9 2
    16    8   10 am
    17   10   28 1
    18   10   29 1
    19   11   12 2
    20   11   13 1
    21   13   18 1
    22   13   14 2
    23   14   15 1
    24   15   16 1
    25   15   17 1
    26   17   18 2
    27   18   19 1
    28   19   23 1
    29   19   20 2
    30   20   21 1
    31   20   30 1
    32   21   22 2
    33   21   31 1
    34   22   23 1
    35   22   32 1
@<TRIPOS>MOLECULE
CHEMBL434700
   32    35     0     0     0
SMALL
USER_CHARGES

@<TRIPOS>ATOM
      1 C1         -0.0300    1.3702    0.0429 C.ar      1 <0>        -0.0607
      2 C2          1.1510    2.0942    0.0381 C.ar      1 <0>        -0.1074
      3 C3          2.3744    1.4373    0.0136 C.ar      1 <0>         0.0400
      4 C4          2.4088    0.0317   -0.0063 C.ar      1 <0>        -0.1964
      5 C5          1.2078   -0.6887   -0.0016 C.ar      1 <0>         0.2471
      6 C6         -0.0059   -0.0092    0.0235 C.ar      1 <0>        -0.1299
      7 N1          1.2284   -2.0807   -0.0211 N.am      1 <0>        -0.6768
      8 C7          0.1732   -2.7636   -0.5077 C.2       1 <0>         0.7082
      9 O1         -0.7522   -2.1664   -1.0227 O.2       1 <0>        -0.5702
     10 N2          0.1437   -4.1084   -0.4233 N.am      1 <0>        -0.8556
     11 C8          3.8176   -0.4106   -0.0301 C.2       1 <0>         0.4911
     12 O2          4.2077   -1.5634   -0.0512 O.2       1 <0>        -0.4415
     13 C9          4.6624    0.7883   -0.0242 C.2       1 <0>        -0.3112
     14 C10         3.7674    1.9484    0.0031 C.2       1 <0>         0.1302
     15 N3          4.5179    3.0220    0.0081 N.2       1 <0>        -0.2223
     16 H1          6.6165    3.2674   -0.0157 H         1 <0>         0.4517
     17 N4          5.8663    2.6526   -0.0142 N.pl3     1 <0>        -0.4531
     18 C11         5.9613    1.2903   -0.0336 C.2       1 <0>         0.2558
     19 C12         7.1986    0.5040   -0.0599 C.2       1 <0>         0.0083
     20 C13         8.2875    0.7471   -0.8481 C.2       1 <0>        -0.1566
     21 C14         9.2342   -0.2466   -0.5468 C.2       1 <0>        -0.2166
     22 C15         8.6887   -1.0412    0.3989 C.2       1 <0>        -0.0050
     23 O3          7.4632   -0.5823    0.6939 O.3       1 <0>        -0.1483
     24 H2         -0.9767    1.8893    0.0666 H         1 <0>         0.1439
     25 H3          1.1203    3.1737    0.0530 H         1 <0>         0.1394
     26 H4         -0.9328   -0.5634    0.0274 H         1 <0>         0.1630
     27 H5          2.0022   -2.5591    0.3155 H         1 <0>         0.4184
     28 H6          0.8820   -4.5848   -0.0124 H         1 <0>         0.4023
     29 H7         -0.6157   -4.5998   -0.7735 H         1 <0>         0.4219
     30 H8          8.3990    1.5477   -1.5643 H         1 <0>         0.1568
     31 H9         10.2137   -0.3546   -0.9887 H         1 <0>         0.1594
     32 H10         9.1625   -1.9023    0.8468 H         1 <0>         0.2140
@<TRIPOS>BOND
     1    1    6 ar
     2    1    2 ar
     3    1   24 1
     4    2    3 ar
     5    2   25 1
     6    3   14 1
     7    3    4 ar
     8    4    5 ar
     9    4   11 1
    10    5    6 ar
    11    5    7 1
    12    6   26 1
    13    7    8 am
    14    7   27 1
    15    8    9 2
    16    8   10 am
    17   10   28 1
    18   10   29 1
    19   11   12 2
    20   11   13 1
    21   13   14 1
    22   13   18 2
    23   14   15 2
    24   15   17 1
    25   16   17 1
    26   17   18 1
    27   18   19 1
    28   19   23 1
    29   19   20 2
    30   20   21 1
    31   20   30 1
    32   21   22 2
    33   21   31 1
    34   22   23 1
    35   22   32 1
@<TRIPOS>MOLECULE
CHEMBL231950
   37    39     0     0     0
SMALL
USER_CHARGES

@<TRIPOS>ATOM
      1 C1         -0.0184    1.5028    0.0103 C.3       1 <0>        -0.1238
      2 C2          0.0021   -0.0041    0.0020 C.2       1 <0>         0.1096
      3 C3          0.0226   -0.6924    1.1795 C.2       1 <0>        -0.1795
      4 C4          0.0227   -0.1812    2.5591 C.2       1 <0>         0.5643
      5 O1          0.0022    1.0135    2.7940 O.2       1 <0>        -0.4768
      6 N1          0.0456   -1.0754    3.5329 N.am      1 <0>        -0.6527
      7 C5          0.0686   -2.4250    3.2454 C.2       1 <0>         0.4255
      8 N2          0.0931   -3.4317    4.0753 N.2       1 <0>        -0.6417
      9 S1          0.0487   -2.4569    1.4603 S.3       1 <0>        -0.0614
     10 C6         -0.0000   -0.7035   -1.2248 C.2       1 <0>        -0.0014
     11 C7         -1.0210   -0.7047   -2.1581 C.2       1 <0>        -0.1528
     12 C8         -0.6032   -1.5235   -3.2109 C.2       1 <0>        -0.1696
     13 C9          0.6406   -1.9883   -2.8904 C.2       1 <0>         0.0262
     14 O2          0.9962   -1.4834   -1.6948 O.3       1 <0>        -0.1435
     15 C10         1.4614   -2.8907   -3.7209 C.ar      1 <0>         0.0431
     16 C11         0.9824   -3.3390   -4.9544 C.ar      1 <0>        -0.1188
     17 C12         1.7550   -4.1823   -5.7253 C.ar      1 <0>        -0.0119
     18 C13         3.0017   -4.5848   -5.2793 C.ar      1 <0>        -0.6734
     19 C14         3.4824   -4.1451   -4.0584 C.ar      1 <0>        -0.0122
     20 C15         2.7236   -3.2963   -3.2800 C.ar      1 <0>        -0.1235
     21 S2          3.9814   -5.6627   -6.2707 S.o2      1 <0>         2.7018
     22 O3          4.8743   -6.3274   -5.3874 O.2       1 <0>        -0.9602
     23 O4          3.0820   -6.3663   -7.1164 O.2       1 <0>        -0.9602
     24 N3          4.9117   -4.7111   -7.2563 N.pl3     1 <0>        -1.2494
     25 H1          1.0042    1.8801    0.0026 H         1 <0>         0.0971
     26 H2         -0.5455    1.8639   -0.8728 H         1 <0>         0.0857
     27 H3         -0.5286    1.8543    0.9071 H         1 <0>         0.1023
     28 H4          0.0465   -0.7804    4.4569 H         1 <0>         0.4264
     29 H5          0.1076   -4.3402    3.7356 H         1 <0>         0.3779
     30 H6         -1.9598   -0.1756   -2.0867 H         1 <0>         0.1647
     31 H7         -1.1595   -1.7468   -4.1093 H         1 <0>         0.1629
     32 H8          0.0094   -3.0262   -5.3033 H         1 <0>         0.1428
     33 H9          1.3860   -4.5296   -6.6790 H         1 <0>         0.1520
     34 H10         4.4560   -4.4639   -3.7163 H         1 <0>         0.1499
     35 H11         3.1022   -2.9498   -2.3297 H         1 <0>         0.1411
     36 H12         4.8412   -3.7451   -7.2050 H         1 <0>         0.4171
     37 H13         5.5270   -5.1198   -7.8850 H         1 <0>         0.4224
@<TRIPOS>BOND
     1    1    2 1
     2    1   25 1
     3    1   26 1
     4    1   27 1
     5    2    3 2
     6    2   10 1
     7    3    9 1
     8    3    4 1
     9    4    5 2
    10    4    6 am
    11    6    7 1
    12    6   28 1
    13    7    8 2
    14    7    9 1
    15    8   29 1
    16   10   14 1
    17   10   11 2
    18   11   12 1
    19   11   30 1
    20   12   13 2
    21   12   31 1
    22   13   14 1
    23   13   15 1
    24   15   20 ar
    25   15   16 ar
    26   16   17 ar
    27   16   32 1
    28   17   18 ar
    29   17   33 1
    30   18   19 ar
    31   18   21 1
    32   19   20 ar
    33   19   34 1
    34   20   35 1
    35   21   22 2
    36   21   23 2
    37   21   24 1
    38   24   36 1
    39   24   37 1
@<TRIPOS>MOLECULE
CHEMBL58466
   50    54     0     0     0
SMALL
USER_CHARGES

@<TRIPOS>ATOM
      1 C1         -0.1229    1.7828   -0.1615 C.ar      1 <0>        -0.0739
      2 C2          1.1180    2.3980   -0.1771 C.ar      1 <0>        -0.1379
      3 C3          2.2685    1.6358   -0.1614 C.ar      1 <0>        -0.0395
      4 C4          2.1760    0.2481   -0.1293 C.ar      1 <0>        -0.0928
      5 C5          0.9223   -0.3781   -0.1129 C.ar      1 <0>         0.1545
      6 C6         -0.2254    0.4070   -0.1297 C.ar      1 <0>        -0.1278
      7 N1          1.1006   -1.7557   -0.0815 N.am      1 <0>        -0.6517
      8 C7          2.4045   -2.0809   -0.0760 C.2       1 <0>         0.5534
      9 O1          2.8605   -3.2102   -0.0511 O.2       1 <0>        -0.4978
     10 C8          3.1836   -0.8356   -0.1059 C.2       1 <0>        -0.1846
     11 C9          4.5580   -0.7047   -0.1106 C.2       1 <0>         0.0601
     12 C10         5.3754   -1.8463   -0.2603 C.2       1 <0>        -0.0037
     13 C11         6.5927   -2.0453    0.3228 C.2       1 <0>        -0.0794
     14 C12         7.0529   -3.3231   -0.1052 C.2       1 <0>        -0.2460
     15 C13         6.0980   -3.8496   -0.9263 C.2       1 <0>         0.1317
     16 N2          5.0816   -2.9665   -1.0205 N.pl3     1 <0>        -0.5130
     17 H1          4.2730   -3.0951   -1.5407 H         1 <0>         0.4271
     18 C14         8.3599   -3.8305    0.3540 C.2       1 <0>         0.5986
     19 O2          8.8834   -4.8031   -0.1546 O.2       1 <0>        -0.5318
     20 N3          8.9462   -3.1562    1.3711 N.am      1 <0>        -0.7328
     21 C15         8.2743   -2.1083    2.1247 C.3       1 <0>         0.1198
     22 C16         7.4152   -1.1933    1.2507 C.3       1 <0>        -0.0681
     23 C17         3.6191    2.3040   -0.1794 C.3       1 <0>        -0.0681
     24 C18         3.6959    3.3340    0.9512 C.3       1 <0>        -0.1430
     25 C19         5.0387    4.0642    0.8782 C.3       1 <0>        -0.0084
     26 N4          5.1592    4.7461   -0.4160 N.4       1 <0>        -0.5061
     27 C20         5.1585    3.7581   -1.5015 C.3       1 <0>        -0.0084
     28 C21         3.8203    3.0161   -1.5201 C.3       1 <0>        -0.1422
     29 H2         -1.0189    2.3858   -0.1698 H         1 <0>         0.1375
     30 H3          1.1854    3.4756   -0.2021 H         1 <0>         0.1276
     31 H4         -1.1988   -0.0609   -0.1178 H         1 <0>         0.1344
     32 H5          0.3762   -2.4005   -0.0655 H         1 <0>         0.4237
     33 H6          5.0080    0.2708    0.0001 H         1 <0>         0.1519
     34 H7          6.1459   -4.8116   -1.4149 H         1 <0>         0.1862
     35 H8          9.8587   -3.3829    1.6093 H         1 <0>         0.4042
     36 H9          7.6372   -2.5722    2.8776 H         1 <0>         0.0646
     37 H10         9.0268   -1.5037    2.6308 H         1 <0>         0.0881
     38 H11         8.0592   -0.5346    0.6679 H         1 <0>         0.0853
     39 H12         6.7554   -0.5983    1.8821 H         1 <0>         0.0892
     40 H13         4.3986    1.5541   -0.0444 H         1 <0>         0.0997
     41 H14         2.8841    4.0534    0.8440 H         1 <0>         0.0949
     42 H15         3.6092    2.8269    1.9122 H         1 <0>         0.1167
     43 H16         5.0968    4.7982    1.6819 H         1 <0>         0.1367
     44 H17         5.8497    3.3440    0.9858 H         1 <0>         0.1317
     45 H18         4.3811    5.3771   -0.5363 H         1 <0>         0.4286
     46 H19         5.3050    4.2661   -2.4547 H         1 <0>         0.1364
     47 H20         5.9670    3.0444   -1.3432 H         1 <0>         0.1316
     48 H21         3.8224    2.2818   -2.3256 H         1 <0>         0.1147
     49 H22         3.0111    3.7289   -1.6786 H         1 <0>         0.0948
     50 H23         6.0212    5.2700   -0.4400 H         1 <0>         0.4331
@<TRIPOS>BOND
     1    1    6 ar
     2    1    2 ar
     3    1   29 1
     4    2    3 ar
     5    2   30 1
     6    3    4 ar
     7    3   23 1
     8    4   10 1
     9    4    5 ar
    10    5    6 ar
    11    5    7 1
    12    6   31 1
    13    7    8 am
    14    7   32 1
    15    8    9 2
    16    8   10 1
    17   10   11 2
    18   11   12 1
    19   11   33 1
    20   12   16 1
    21   12   13 2
    22   13   22 1
    23   13   14 1
    24   14   15 2
    25   14   18 1
    26   15   16 1
    27   15   34 1
    28   16   17 1
    29   18   19 2
    30   18   20 am
    31   20   21 1
    32   20   35 1
    33   21   22 1
    34   21   36 1
    35   21   37 1
    36   22   38 1
    37   22   39 1
    38   23   28 1
    39   23   24 1
    40   23   40 1
    41   24   25 1
    42   24   41 1
    43   24   42 1
    44   25   26 1
    45   25   43 1
    46   25   44 1
    47   26   27 1
    48   26   45 1
    49   26   50 1
    50   27   28 1
    51   27   46 1
    52   27   47 1
    53   28   48 1
    54   28   49 1
@<TRIPOS>MOLECULE
CHEMBL1086736
   34    36     0     0     0
SMALL
USER_CHARGES

@<TRIPOS>ATOM
      1 C1         -0.0173    1.4248    0.0099 C.3       1 <0>         0.0241
      2 O1          0.0021   -0.0041    0.0020 O.3       1 <0>        -0.2746
      3 C2         -1.1984   -0.6365    0.0101 C.ar      1 <0>         0.1653
      4 C3         -2.3863    0.0861    0.0195 C.ar      1 <0>        -0.2620
      5 C4         -3.5885   -0.5928    0.0276 C.ar      1 <0>         0.1050
      6 N1         -3.6275   -1.9125    0.0265 N.ar      1 <0>        -0.5046
      7 C5         -2.5315   -2.6437    0.0177 C.ar      1 <0>         0.1248
      8 C6         -1.2753   -2.0398    0.0033 C.ar      1 <0>        -0.0357
      9 C7         -0.0454   -2.8609   -0.0134 C.2       1 <0>        -0.0321
     10 N2          1.2012   -2.4303   -0.0177 N.2       1 <0>        -0.1480
     11 N3          2.0544   -3.3820   -0.0331 N.2       1 <0>        -0.4500
     12 C8          1.4969   -4.5735   -0.0411 C.2       1 <0>         0.3809
     13 O2          2.1307   -5.7741   -0.0575 O.3       1 <0>        -0.6553
     14 C9          0.0445   -4.3367   -0.0222 C.2       1 <0>        -0.0305
     15 N4         -0.9379   -5.2247   -0.0172 N.2       1 <0>        -0.1483
     16 N5         -0.6673   -6.4859   -0.0267 N.pl3     1 <0>        -0.4932
     17 C10        -1.7019   -7.4212   -0.0214 C.ar      1 <0>         0.1869
     18 C11        -3.0254   -6.9961   -0.0116 C.ar      1 <0>        -0.1473
     19 C12        -4.0469   -7.9250   -0.0063 C.ar      1 <0>        -0.0878
     20 C13        -3.7548   -9.2769   -0.0107 C.ar      1 <0>        -0.1600
     21 C14        -2.4392   -9.7037   -0.0200 C.ar      1 <0>        -0.0861
     22 C15        -1.4122   -8.7808   -0.0316 C.ar      1 <0>        -0.1666
     23 H1          1.0053    1.8021    0.0021 H         1 <0>         0.0994
     24 H2         -0.5445    1.7859   -0.8732 H         1 <0>         0.0509
     25 H3         -0.5275    1.7763    0.9067 H         1 <0>         0.0509
     26 H4         -2.3688    1.1659    0.0209 H         1 <0>         0.1333
     27 H5         -4.5131   -0.0346    0.0353 H         1 <0>         0.1494
     28 H6         -2.6071   -3.7211    0.0172 H         1 <0>         0.1684
     29 H7          0.2558   -6.7839   -0.0376 H         1 <0>         0.4117
     30 H8         -3.2543   -5.9407   -0.0077 H         1 <0>         0.1362
     31 H9         -5.0754   -7.5955    0.0017 H         1 <0>         0.1251
     32 H10        -4.5559  -10.0011   -0.0065 H         1 <0>         0.1196
     33 H11        -2.2149  -10.7601   -0.0231 H         1 <0>         0.1241
     34 H12        -0.3853   -9.1148   -0.0437 H         1 <0>         0.1260
@<TRIPOS>BOND
     1    1    2 1
     2    1   23 1
     3    1   24 1
     4    1   25 1
     5    2    3 1
     6    3    8 ar
     7    3    4 ar
     8    4    5 ar
     9    4   26 1
    10    5    6 ar
    11    5   27 1
    12    6    7 ar
    13    7    8 ar
    14    7   28 1
    15    8    9 1
    16    9   14 1
    17    9   10 2
    18   10   11 1
    19   11   12 2
    20   12   13 1
    21   12   14 1
    22   14   15 2
    23   15   16 1
    24   16   17 1
    25   16   29 1
    26   17   22 ar
    27   17   18 ar
    28   18   19 ar
    29   18   30 1
    30   19   20 ar
    31   19   31 1
    32   20   21 ar
    33   20   32 1
    34   21   22 ar
    35   21   33 1
    36   22   34 1
@<TRIPOS>MOLECULE
CHEMBL1086736
   35    37     0     0     0
SMALL
USER_CHARGES

@<TRIPOS>ATOM
      1 C1         -0.0173    1.4248    0.0099 C.3       1 <0>         0.0203
      2 O1          0.0021   -0.0041    0.0020 O.3       1 <0>        -0.2838
      3 C2         -1.1984   -0.6364    0.0101 C.ar      1 <0>         0.2043
      4 C3         -2.3866    0.0864    0.0195 C.ar      1 <0>        -0.2674
      5 C4         -3.5884   -0.5925    0.0276 C.ar      1 <0>         0.1535
      6 N1         -3.6266   -1.9121    0.0265 N.ar      1 <0>        -0.5052
      7 C5         -2.5298   -2.6426    0.0177 C.ar      1 <0>         0.1749
      8 C6         -1.2750   -2.0385    0.0033 C.ar      1 <0>        -0.1216
      9 C7         -0.0430   -2.8606   -0.0134 C.2       1 <0>         0.2160
     10 N2          1.1846   -2.4149   -0.0175 N.2       1 <0>        -0.1999
     11 N3          2.1041   -3.4629   -0.0335 N.am      1 <0>        -0.5531
     12 C8          1.4632   -4.6487   -0.0402 C.2       1 <0>         0.5178
     13 O2          1.9723   -5.7561   -0.0536 O.2       1 <0>        -0.5248
     14 C9          0.0246   -4.3371   -0.0221 C.2       1 <0>        -0.1064
     15 N4         -0.9829   -5.1884   -0.0169 N.2       1 <0>        -0.0740
     16 N5         -0.7545   -6.4580   -0.0260 N.pl3     1 <0>        -0.4585
     17 C10        -1.8200   -7.3584   -0.0206 C.ar      1 <0>         0.1453
     18 C11        -3.1285   -6.8894   -0.0112 C.ar      1 <0>        -0.1286
     19 C12        -4.1805   -7.7837   -0.0058 C.ar      1 <0>        -0.0900
     20 C13        -3.9337   -9.1445   -0.0093 C.ar      1 <0>        -0.1302
     21 C14        -2.6331   -9.6149   -0.0182 C.ar      1 <0>        -0.0886
     22 C15        -1.5759   -8.7268   -0.0304 C.ar      1 <0>        -0.1422
     23 H1          1.0053    1.8021    0.0021 H         1 <0>         0.1072
     24 H2         -0.5445    1.7859   -0.8732 H         1 <0>         0.0608
     25 H3         -0.5275    1.7763    0.9067 H         1 <0>         0.0608
     26 H4         -2.3691    1.1663    0.0209 H         1 <0>         0.1471
     27 H5         -4.5131   -0.0346    0.0353 H         1 <0>         0.1647
     28 H6         -2.6048   -3.7200    0.0171 H         1 <0>         0.1751
     29 H7          3.0680   -3.3541   -0.0394 H         1 <0>         0.4444
     30 H8          0.1581   -6.7866   -0.0366 H         1 <0>         0.4143
     31 H9         -3.3220   -5.8269   -0.0077 H         1 <0>         0.1391
     32 H10        -5.1975   -7.4200    0.0015 H         1 <0>         0.1344
     33 H11        -4.7586   -9.8416   -0.0047 H         1 <0>         0.1295
     34 H12        -2.4442  -10.6783   -0.0202 H         1 <0>         0.1334
     35 H13        -0.5607   -9.0948   -0.0426 H         1 <0>         0.1311
@<TRIPOS>BOND
     1    1    2 1
     2    1   23 1
     3    1   24 1
     4    1   25 1
     5    2    3 1
     6    3    8 ar
     7    3    4 ar
     8    4    5 ar
     9    4   26 1
    10    5    6 ar
    11    5   27 1
    12    6    7 ar
    13    7    8 ar
    14    7   28 1
    15    8    9 1
    16    9   14 1
    17    9   10 2
    18   10   11 1
    19   11   12 am
    20   11   29 1
    21   12   13 2
    22   12   14 1
    23   14   15 2
    24   15   16 1
    25   16   17 1
    26   16   30 1
    27   17   22 ar
    28   17   18 ar
    29   18   19 ar
    30   18   31 1
    31   19   20 ar
    32   19   32 1
    33   20   21 ar
    34   20   33 1
    35   21   22 ar
    36   21   34 1
    37   22   35 1
@<TRIPOS>MOLECULE
CHEMBL571722
   60    64     0     0     0
SMALL
USER_CHARGES

@<TRIPOS>ATOM
      1 C1          0.2427    1.5003   -0.0100 C.3       1 <0>        -0.1008
      2 C2          0.1930   -0.0059   -0.0128 C.ar      1 <0>        -0.2409
      3 C3         -0.0311   -0.7041   -1.1850 C.ar      1 <0>         0.1903
      4 N1         -0.0691   -2.0272   -1.1540 N.ar      1 <0>        -0.5577
      5 C4          0.1043   -2.6885   -0.0185 C.ar      1 <0>         0.5607
      6 N2          0.3213   -2.0598    1.1261 N.ar      1 <0>        -0.5523
      7 C5          0.3781   -0.7301    1.1689 C.ar      1 <0>         0.2991
      8 C6          0.6274   -0.0285    2.4500 C.2       1 <0>        -0.1530
      9 C7          0.1830   -0.4326    3.7253 C.2       1 <0>        -0.0510
     10 C8          0.6327    0.4960    4.6196 C.2       1 <0>        -0.0615
     11 N3          1.3381    1.4542    3.9266 N.pl3     1 <0>        -0.5293
     12 H1          1.7676    2.2303    4.3190 H         1 <0>         0.4208
     13 C9          1.3419    1.1375    2.6179 C.2       1 <0>         0.0714
     14 C10         0.4034    0.4765    6.0690 C.2       1 <0>         0.5932
     15 O1         -0.2394   -0.4265    6.5712 O.2       1 <0>        -0.5231
     16 N4          0.9046    1.4587    6.8438 N.am      1 <0>        -0.7198
     17 C11         0.6757    1.4392    8.2907 C.3       1 <0>         0.1936
     18 H2          0.6766    0.4084    8.6448 H         1 <0>         0.1150
     19 C12        -0.6763    2.0843    8.6019 C.3       1 <0>         0.0671
     20 O2         -0.6380    3.4671    8.2438 O.3       1 <0>        -0.5678
     21 C13         1.7708    2.2091    8.9830 C.ar      1 <0>        -0.0798
     22 C14         2.2399    3.3882    8.4341 C.ar      1 <0>        -0.0877
     23 C15         3.2443    4.0949    9.0685 C.ar      1 <0>        -0.1063
     24 C16         3.7806    3.6228   10.2519 C.ar      1 <0>        -0.1061
     25 C17         3.3117    2.4431   10.8014 C.ar      1 <0>        -0.0331
     26 C18         2.3019    1.7393   10.1691 C.ar      1 <0>        -0.0995
     27 Cl1         3.9847    1.8496   12.2875 Cl        1 <0>        -0.0649
     28 N5          0.0566   -4.0725   -0.0296 N.pl3     1 <0>        -0.6290
     29 C19        -0.0459   -4.7600   -1.2457 C.ar      1 <0>         0.1807
     30 C20         0.5331   -4.2336   -2.3922 C.ar      1 <0>        -0.1168
     31 C21         0.4317   -4.9116   -3.5918 C.ar      1 <0>        -0.0922
     32 C22        -0.2464   -6.1143   -3.6548 C.ar      1 <0>        -0.1335
     33 C23        -0.8287   -6.6483   -2.5133 C.ar      1 <0>         0.0699
     34 C24        -0.7237   -5.9750   -1.3043 C.ar      1 <0>         0.0167
     35 O3         -1.2771   -6.4872   -0.1701 O.3       1 <0>        -0.3099
     36 C25        -2.2618   -7.5124   -0.3409 C.3       1 <0>         0.0237
     37 C26        -1.7274   -8.5260   -1.3618 C.3       1 <0>         0.0199
     38 O4         -1.4958   -7.8320   -2.5958 O.3       1 <0>        -0.3052
     39 H3          1.2661    1.8304   -0.1880 H         1 <0>         0.0692
     40 H4         -0.4057    1.8867   -0.7963 H         1 <0>         0.0696
     41 H5         -0.0965    1.8732    0.9565 H         1 <0>         0.0729
     42 H6         -0.1740   -0.1757   -2.1161 H         1 <0>         0.1702
     43 H7         -0.4032   -1.3109    3.9522 H         1 <0>         0.1551
     44 H8          1.8212    1.7032    1.8326 H         1 <0>         0.1846
     45 H9          1.4170    2.1785    6.4435 H         1 <0>         0.3965
     46 H10        -1.4580    1.5827    8.0313 H         1 <0>         0.0600
     47 H11        -0.8870    1.9905    9.6672 H         1 <0>         0.0599
     48 H12        -1.4638    3.9406    8.4140 H         1 <0>         0.3825
     49 H13         1.8217    3.7571    7.5093 H         1 <0>         0.1284
     50 H14         3.6103    5.0159    8.6393 H         1 <0>         0.1343
     51 H15         4.5659    4.1747   10.7470 H         1 <0>         0.1349
     52 H16         1.9323    0.8205   10.6000 H         1 <0>         0.1358
     53 H17         0.0942   -4.5658    0.8048 H         1 <0>         0.4272
     54 H18         1.0627   -3.2935   -2.3466 H         1 <0>         0.1456
     55 H19         0.8831   -4.5005   -4.4827 H         1 <0>         0.1358
     56 H20        -0.3237   -6.6401   -4.5950 H         1 <0>         0.1348
     57 H21        -2.4428   -8.0106    0.6116 H         1 <0>         0.1225
     58 H22        -3.1892   -7.0738   -0.7091 H         1 <0>         0.0772
     59 H23        -0.7971   -8.9607   -0.9960 H         1 <0>         0.0795
     60 H24        -2.4648   -9.3132   -1.5189 H         1 <0>         0.1225
@<TRIPOS>BOND
     1    1    2 1
     2    1   39 1
     3    1   40 1
     4    1   41 1
     5    2    7 ar
     6    2    3 ar
     7    3    4 ar
     8    3   42 1
     9    4    5 ar
    10    5    6 ar
    11    5   28 1
    12    6    7 ar
    13    7    8 1
    14    8   13 2
    15    8    9 1
    16    9   10 2
    17    9   43 1
    18   10   11 1
    19   10   14 1
    20   11   12 1
    21   11   13 1
    22   13   44 1
    23   14   15 2
    24   14   16 am
    25   16   17 1
    26   16   45 1
    27   17   18 1
    28   17   19 1
    29   17   21 1
    30   19   20 1
    31   19   46 1
    32   19   47 1
    33   20   48 1
    34   21   26 ar
    35   21   22 ar
    36   22   23 ar
    37   22   49 1
    38   23   24 ar
    39   23   50 1
    40   24   25 ar
    41   24   51 1
    42   25   26 ar
    43   25   27 1
    44   26   52 1
    45   28   29 1
    46   28   53 1
    47   29   34 ar
    48   29   30 ar
    49   30   31 ar
    50   30   54 1
    51   31   32 ar
    52   31   55 1
    53   32   33 ar
    54   32   56 1
    55   33   38 1
    56   33   34 ar
    57   34   35 1
    58   35   36 1
    59   36   37 1
    60   36   57 1
    61   36   58 1
    62   37   38 1
    63   37   59 1
    64   37   60 1
@<TRIPOS>MOLECULE
CHEMBL484990
   37    40     0     0     0
SMALL
USER_CHARGES

@<TRIPOS>ATOM
      1 C1         -0.0167    1.3781    0.0096 C.ar      1 <0>        -0.1353
      2 C2          1.1709    2.0855    0.0021 C.ar      1 <0>        -0.1247
      3 C3          2.3773    1.4107   -0.0130 C.ar      1 <0>        -0.1086
      4 C4          2.3960    0.0285   -0.0201 C.ar      1 <0>        -0.0416
      5 C5          1.2084   -0.6789   -0.0117 C.ar      1 <0>        -0.1086
      6 C6          0.0021   -0.0041    0.0020 C.ar      1 <0>        -0.1247
      7 C7          3.7112   -0.7071   -0.0376 C.3       1 <0>         0.1158
      8 N1          4.1518   -0.9524    1.3379 N.2       1 <0>        -0.5932
      9 C8          5.3309   -1.6117    1.5728 C.2       1 <0>         0.4245
     10 N2          6.1952   -2.0893    0.6919 N.2       1 <0>        -0.7274
     11 C9          7.2994   -2.7075    1.0515 C.2       1 <0>         0.5311
     12 O1          8.0898   -3.1437    0.2286 O.2       1 <0>        -0.5617
     13 C10         7.5325   -2.8456    2.5036 C.2       1 <0>        -0.1866
     14 C11         8.5681   -3.4272    3.1690 C.2       1 <0>         0.0103
     15 C12         8.5812   -3.4425    4.6312 C.2       1 <0>        -0.1404
     16 C13         7.6301   -2.9231    5.4654 C.2       1 <0>         0.0919
     17 N3          7.9931   -3.1303    6.7570 N.pl3     1 <0>        -0.5700
     18 H1          7.4756   -2.8497    7.5280 H         1 <0>         0.4211
     19 C14         9.1980   -3.7944    6.8207 C.ar      1 <0>         0.2797
     20 C15         9.6192   -4.0265    5.5001 C.ar      1 <0>        -0.1299
     21 C16        10.8190   -4.6944    5.2675 C.ar      1 <0>        -0.0271
     22 C17        11.5553   -5.1108    6.3630 C.ar      1 <0>        -0.2027
     23 C18        11.0796   -4.8524    7.6381 C.ar      1 <0>         0.1292
     24 N4          9.9460   -4.2121    7.8335 N.ar      1 <0>        -0.4995
     25 S1          6.0761   -2.0272    3.1419 S.3       1 <0>        -0.1631
     26 H2         -0.9591    1.9053    0.0259 H         1 <0>         0.1139
     27 H3          1.1563    3.1654    0.0076 H         1 <0>         0.1154
     28 H4          3.3051    1.9634   -0.0196 H         1 <0>         0.1171
     29 H5          1.2231   -1.7588   -0.0176 H         1 <0>         0.1171
     30 H6         -0.9258   -0.5567    0.0082 H         1 <0>         0.1154
     31 H7          3.5884   -1.6586   -0.5549 H         1 <0>         0.0480
     32 H8          4.4573   -0.1052   -0.5563 H         1 <0>         0.0480
     33 H9          9.3800   -3.8772    2.6170 H         1 <0>         0.1434
     34 H10         6.7276   -2.4237    5.1452 H         1 <0>         0.1922
     35 H11        11.1646   -4.8821    4.2617 H         1 <0>         0.1367
     36 H12        12.4910   -5.6323    6.2251 H         1 <0>         0.1363
     37 H13        11.6551   -5.1783    8.4918 H         1 <0>         0.1583
@<TRIPOS>BOND
     1    1    6 ar
     2    1    2 ar
     3    1   26 1
     4    2    3 ar
     5    2   27 1
     6    3    4 ar
     7    3   28 1
     8    4    5 ar
     9    4    7 1
    10    5    6 ar
    11    5   29 1
    12    6   30 1
    13    7    8 1
    14    7   31 1
    15    7   32 1
    16    8    9 1
    17    9   25 1
    18    9   10 2
    19   10   11 1
    20   11   12 2
    21   11   13 1
    22   13   14 2
    23   13   25 1
    24   14   15 1
    25   14   33 1
    26   15   20 1
    27   15   16 2
    28   16   17 1
    29   16   34 1
    30   17   18 1
    31   17   19 1
    32   19   24 ar
    33   19   20 ar
    34   20   21 ar
    35   21   22 ar
    36   21   35 1
    37   22   23 ar
    38   22   36 1
    39   23   24 ar
    40   23   37 1
@<TRIPOS>MOLECULE
CHEMBL484990
   38    41     0     0     0
SMALL
USER_CHARGES

@<TRIPOS>ATOM
      1 C1         -0.0167    1.3781    0.0096 C.ar      1 <0>        -0.1044
      2 C2          1.1709    2.0855    0.0021 C.ar      1 <0>        -0.1217
      3 C3          2.3773    1.4107   -0.0130 C.ar      1 <0>        -0.0955
      4 C4          2.3960    0.0285   -0.0201 C.ar      1 <0>        -0.1220
      5 C5          1.2084   -0.6789   -0.0117 C.ar      1 <0>        -0.0955
      6 C6          0.0021   -0.0041    0.0020 C.ar      1 <0>        -0.1216
      7 C7          3.7112   -0.7071   -0.0376 C.3       1 <0>         0.1623
      8 N1          4.1518   -0.9524    1.3379 N.pl3     1 <0>        -0.6363
      9 C8          5.3309   -1.6117    1.5728 C.2       1 <0>         0.4926
     10 N2          6.1952   -2.0893    0.6919 N.2       1 <0>        -0.6565
     11 C9          7.2994   -2.7075    1.0515 C.2       1 <0>         0.5522
     12 O1          8.0898   -3.1437    0.2286 O.2       1 <0>        -0.4666
     13 C10         7.5325   -2.8456    2.5036 C.2       1 <0>        -0.2532
     14 C11         8.5681   -3.4272    3.1690 C.2       1 <0>         0.1085
     15 C12         8.5812   -3.4425    4.6312 C.2       1 <0>        -0.1768
     16 C13         7.6301   -2.9231    5.4654 C.2       1 <0>         0.1257
     17 N3          7.9931   -3.1303    6.7570 N.pl3     1 <0>        -0.5628
     18 H1          7.4756   -2.8497    7.5280 H         1 <0>         0.4273
     19 C14         9.1980   -3.7944    6.8207 C.ar      1 <0>         0.2821
     20 C15         9.6192   -4.0265    5.5001 C.ar      1 <0>        -0.1258
     21 C16        10.8190   -4.6944    5.2675 C.ar      1 <0>        -0.0296
     22 C17        11.5553   -5.1108    6.3630 C.ar      1 <0>        -0.1882
     23 C18        11.0796   -4.8524    7.6381 C.ar      1 <0>         0.1402
     24 N4          9.9460   -4.2121    7.8335 N.ar      1 <0>        -0.4930
     25 S1          6.0761   -2.0272    3.1419 S.3       1 <0>        -0.0828
     26 H2         -0.9591    1.9053    0.0259 H         1 <0>         0.1260
     27 H3          1.1563    3.1654    0.0076 H         1 <0>         0.1270
     28 H4          3.3051    1.9634   -0.0196 H         1 <0>         0.1266
     29 H5          1.2231   -1.7588   -0.0176 H         1 <0>         0.1266
     30 H6         -0.9258   -0.5567    0.0082 H         1 <0>         0.1270
     31 H7          3.5884   -1.6586   -0.5549 H         1 <0>         0.0923
     32 H8          4.4573   -0.1052   -0.5563 H         1 <0>         0.0925
     33 H9          3.6095   -0.6484    2.0824 H         1 <0>         0.4267
     34 H10         9.3800   -3.8772    2.6170 H         1 <0>         0.1611
     35 H11         6.7276   -2.4237    5.1452 H         1 <0>         0.1846
     36 H12        11.1646   -4.8821    4.2617 H         1 <0>         0.1408
     37 H13        12.4910   -5.6323    6.2251 H         1 <0>         0.1440
     38 H14        11.6551   -5.1783    8.4918 H         1 <0>         0.1661
@<TRIPOS>BOND
     1    1    6 ar
     2    1    2 ar
     3    1   26 1
     4    2    3 ar
     5    2   27 1
     6    3    4 ar
     7    3   28 1
     8    4    5 ar
     9    4    7 1
    10    5    6 ar
    11    5   29 1
    12    6   30 1
    13    7    8 1
    14    7   31 1
    15    7   32 1
    16    8    9 1
    17    8   33 1
    18    9   25 1
    19    9   10 2
    20   10   11 1
    21   11   12 2
    22   11   13 1
    23   13   14 2
    24   13   25 1
    25   14   15 1
    26   14   34 1
    27   15   20 1
    28   15   16 2
    29   16   17 1
    30   16   35 1
    31   17   18 1
    32   17   19 1
    33   19   24 ar
    34   19   20 ar
    35   20   21 ar
    36   21   22 ar
    37   21   36 1
    38   22   23 ar
    39   22   37 1
    40   23   24 ar
    41   23   38 1
@<TRIPOS>MOLECULE
CHEMBL139653
   71    76     0     0     0
SMALL
USER_CHARGES

@<TRIPOS>ATOM
      1 C1          0.2237    0.5368   -1.6560 C.ar      1 <0>        -0.1070
      2 C2          1.4483    1.0794   -1.9925 C.ar      1 <0>        -0.0638
      3 C3          2.4848    0.2560   -2.3924 C.ar      1 <0>        -0.0814
      4 C4          2.2992   -1.1129   -2.4565 C.ar      1 <0>        -0.0587
      5 C5          1.0772   -1.6620   -2.1210 C.ar      1 <0>        -0.1373
      6 C6          0.0339   -0.8377   -1.7193 C.ar      1 <0>         0.2251
      7 N1         -1.2044   -1.3903   -1.3789 N.pl3     1 <0>        -0.6292
      8 C7         -2.3568   -0.6406   -1.5167 C.ar      1 <0>         0.5651
      9 N2         -2.2781    0.5515   -2.0982 N.ar      1 <0>        -0.5742
     10 C8         -3.3492    1.3081   -2.2552 C.ar      1 <0>         0.2515
     11 C9         -4.5793    0.8257   -1.7932 C.ar      1 <0>        -0.2630
     12 C10        -5.8119    1.5961   -1.9268 C.2       1 <0>        -0.0036
     13 C11        -6.9643    1.0550   -1.4520 C.2       1 <0>        -0.2096
     14 C12        -6.9530   -0.2186   -0.8481 C.2       1 <0>         0.5371
     15 O1         -7.9981   -0.6848   -0.4286 O.2       1 <0>        -0.5055
     16 N3         -5.8209   -0.9336   -0.7224 N.am      1 <0>        -0.4948
     17 C13        -4.6244   -0.4456   -1.1803 C.ar      1 <0>         0.4508
     18 N4         -3.4990   -1.1399   -1.0689 N.ar      1 <0>        -0.5310
     19 C14        -5.8669   -2.2526   -0.0866 C.3       1 <0>         0.1241
     20 C15        -4.4815   -2.6204    0.4923 C.3       1 <0>        -0.1641
     21 C16        -4.0648   -3.9130   -0.2736 C.3       1 <0>        -0.0890
     22 C17        -3.7691   -3.4282   -1.7258 C.3       1 <0>        -0.1439
     23 C18        -5.1545   -3.0604   -2.3047 C.3       1 <0>        -0.1184
     24 C19        -6.1567   -3.3577   -1.1477 C.3       1 <0>        -0.1082
     25 C20        -5.4640   -4.5949   -0.4747 C.3       1 <0>        -0.1228
     26 N5          3.7229    0.8086   -2.7332 N.4       1 <0>        -0.3125
     27 C21         4.0376    0.4774   -4.1281 C.3       1 <0>        -0.0058
     28 C22         5.3529    1.1475   -4.5312 C.3       1 <0>        -0.1423
     29 C23         6.4760    0.6445   -3.6196 C.3       1 <0>        -0.0994
     30 C24         6.1027    0.9286   -2.1618 C.3       1 <0>        -0.1456
     31 C25         4.7596    0.2667   -1.8466 C.3       1 <0>        -0.0059
     32 C26         7.7784    1.3692   -3.9649 C.3       1 <0>        -0.1143
     33 C27         8.9245    0.7788   -3.1409 C.3       1 <0>        -0.1241
     34 C28        10.2269    1.5035   -3.4862 C.3       1 <0>         0.0720
     35 O2         11.2973    0.9521   -2.7166 O.3       1 <0>        -0.5765
     36 H1         -0.5841    1.1801   -1.3398 H         1 <0>         0.1687
     37 H2          1.5966    2.1481   -1.9435 H         1 <0>         0.1468
     38 H3          3.1106   -1.7532   -2.7696 H         1 <0>         0.1447
     39 H4          0.9328   -2.7311   -2.1716 H         1 <0>         0.1498
     40 H5         -1.2545   -2.3001   -1.0461 H         1 <0>         0.4345
     41 H6         -3.2776    2.2762   -2.7286 H         1 <0>         0.1905
     42 H7         -5.8080    2.5714   -2.3908 H         1 <0>         0.1570
     43 H8         -7.8914    1.6024   -1.5372 H         1 <0>         0.1649
     44 H9         -6.6247   -2.2699    0.6967 H         1 <0>         0.1079
     45 H10        -3.7663   -1.8197    0.3038 H         1 <0>         0.1419
     46 H11        -4.5571   -2.8197    1.5612 H         1 <0>         0.0642
     47 H12        -3.2961   -4.5220    0.2023 H         1 <0>         0.0989
     48 H13        -3.1197   -2.5529   -1.7093 H         1 <0>         0.1098
     49 H14        -3.3142   -4.2291   -2.3086 H         1 <0>         0.0504
     50 H15        -5.1861   -2.0044   -2.5728 H         1 <0>         0.0490
     51 H16        -5.3806   -3.6806   -3.1721 H         1 <0>         0.0632
     52 H17        -7.2001   -3.4759   -1.4398 H         1 <0>         0.1036
     53 H18        -5.4091   -5.4496   -1.1490 H         1 <0>         0.0756
     54 H19        -5.9306   -4.8583    0.4745 H         1 <0>         0.0737
     55 H20         4.1343   -0.6033   -4.2316 H         1 <0>         0.1269
     56 H21         3.2359    0.8332   -4.7753 H         1 <0>         0.1312
     57 H22         5.5857    0.8989   -5.5666 H         1 <0>         0.1133
     58 H23         5.2572    2.2284   -4.4283 H         1 <0>         0.0893
     59 H24         6.6063   -0.4286   -3.7600 H         1 <0>         0.0910
     60 H25         6.8714    0.5237   -1.5037 H         1 <0>         0.1152
     61 H26         6.0226    2.0050   -2.0098 H         1 <0>         0.0895
     62 H27         4.4910    0.4669   -0.8094 H         1 <0>         0.1310
     63 H28         4.8409   -0.8096   -1.9987 H         1 <0>         0.1271
     64 H29         7.9928    1.2454   -5.0264 H         1 <0>         0.0765
     65 H30         7.6756    2.4300   -3.7363 H         1 <0>         0.0719
     66 H31         8.7101    0.9026   -2.0794 H         1 <0>         0.0715
     67 H32         9.0273   -0.2820   -3.3695 H         1 <0>         0.0728
     68 H33        10.4413    1.3797   -4.5477 H         1 <0>         0.0470
     69 H34        10.1241    2.5643   -3.2576 H         1 <0>         0.0459
     70 H35        12.1556    1.3646   -2.8845 H         1 <0>         0.3870
     71 H36         3.6827    1.8113   -2.6285 H         1 <0>         0.4242
@<TRIPOS>BOND
     1    1    6 ar
     2    1    2 ar
     3    1   36 1
     4    2    3 ar
     5    2   37 1
     6    3    4 ar
     7    3   26 1
     8    4    5 ar
     9    4   38 1
    10    5    6 ar
    11    5   39 1
    12    6    7 1
    13    7    8 1
    14    7   40 1
    15    8   18 ar
    16    8    9 ar
    17    9   10 ar
    18   10   11 ar
    19   10   41 1
    20   11   17 ar
    21   11   12 1
    22   12   13 2
    23   12   42 1
    24   13   14 1
    25   13   43 1
    26   14   15 2
    27   14   16 am
    28   16   17 1
    29   16   19 1
    30   17   18 ar
    31   19   24 1
    32   19   20 1
    33   19   44 1
    34   20   21 1
    35   20   45 1
    36   20   46 1
    37   21   25 1
    38   21   22 1
    39   21   47 1
    40   22   23 1
    41   22   48 1
    42   22   49 1
    43   23   24 1
    44   23   50 1
    45   23   51 1
    46   24   25 1
    47   24   52 1
    48   25   53 1
    49   25   54 1
    50   26   31 1
    51   26   27 1
    52   26   71 1
    53   27   28 1
    54   27   55 1
    55   27   56 1
    56   28   29 1
    57   28   57 1
    58   28   58 1
    59   29   30 1
    60   29   32 1
    61   29   59 1
    62   30   31 1
    63   30   60 1
    64   30   61 1
    65   31   62 1
    66   31   63 1
    67   32   33 1
    68   32   64 1
    69   32   65 1
    70   33   34 1
    71   33   66 1
    72   33   67 1
    73   34   35 1
    74   34   68 1
    75   34   69 1
    76   35   70 1
@<TRIPOS>MOLECULE
CHEMBL139653
   71    76     0     0     0
SMALL
USER_CHARGES

@<TRIPOS>ATOM
      1 C1         -0.2702    1.7051    0.7483 C.ar      1 <0>        -0.1017
      2 C2          0.8782    2.4657    0.8474 C.ar      1 <0>        -0.0653
      3 C3          2.1173    1.8518    0.8578 C.ar      1 <0>        -0.0796
      4 C4          2.2109    0.4749    0.7697 C.ar      1 <0>        -0.0603
      5 C5          1.0664   -0.2917    0.6708 C.ar      1 <0>        -0.1353
      6 C6         -0.1797    0.3218    0.6596 C.ar      1 <0>         0.2253
      7 N1         -1.3403   -0.4512    0.5596 N.pl3     1 <0>        -0.6295
      8 C7         -2.4584    0.0596   -0.0714 C.ar      1 <0>         0.5772
      9 N2         -2.3808    1.2592   -0.6374 N.ar      1 <0>        -0.5793
     10 C8         -3.4197    1.7934   -1.2536 C.ar      1 <0>         0.2540
     11 C9         -4.6141    1.0650   -1.2993 C.ar      1 <0>        -0.2666
     12 C10        -5.8096    1.5801   -1.9599 C.2       1 <0>        -0.0023
     13 C11        -6.9285    0.8092   -1.9594 C.2       1 <0>        -0.2122
     14 C12        -6.9191   -0.4531   -1.3322 C.2       1 <0>         0.5370
     15 O1         -7.9340   -1.1280   -1.3433 O.2       1 <0>        -0.5047
     16 N3         -5.8209   -0.9336   -0.7224 N.am      1 <0>        -0.4978
     17 C13        -4.6592   -0.2065   -0.6868 C.ar      1 <0>         0.4566
     18 N4         -3.5653   -0.6676   -0.0938 N.ar      1 <0>        -0.5541
     19 C14        -5.8669   -2.2526   -0.0866 C.3       1 <0>         0.1231
     20 C15        -6.7032   -2.1960    1.2122 C.3       1 <0>        -0.1220
     21 C16        -5.7050   -2.5954    2.3415 C.3       1 <0>        -0.1107
     22 C17        -5.4401   -4.1143    2.1092 C.3       1 <0>        -0.1226
     23 C18        -4.6038   -4.1710    0.8104 C.3       1 <0>        -0.1306
     24 C19        -4.4421   -2.6809    0.3803 C.3       1 <0>        -0.0768
     25 C20        -4.3736   -1.9799    1.7829 C.3       1 <0>        -0.0984
     26 N5          3.2778    2.6248    0.9573 N.4       1 <0>        -0.3128
     27 C21         4.1130    2.4059   -0.2298 C.3       1 <0>        -0.0056
     28 C22         5.3456    3.3103   -0.1647 C.3       1 <0>        -0.1423
     29 C23         6.1498    2.9781    1.0955 C.3       1 <0>        -0.0994
     30 C24         5.2471    3.1382    2.3221 C.3       1 <0>        -0.1456
     31 C25         4.0181    2.2402    2.1650 C.3       1 <0>        -0.0059
     32 C26         7.3407    3.9319    1.2086 C.3       1 <0>        -0.1143
     33 C27         8.2121    3.5209    2.3972 C.3       1 <0>        -0.1241
     34 C28         9.4031    4.4747    2.5104 C.3       1 <0>         0.0720
     35 O2         10.2169    4.0908    3.6205 O.3       1 <0>        -0.5765
     36 H1         -1.2378    2.1849    0.7443 H         1 <0>         0.1648
     37 H2          0.8085    3.5413    0.9164 H         1 <0>         0.1466
     38 H3          3.1801   -0.0014    0.7778 H         1 <0>         0.1445
     39 H4          1.1403   -1.3669    0.6017 H         1 <0>         0.1496
     40 H5         -1.3607   -1.3461    0.9333 H         1 <0>         0.4335
     41 H6         -3.3494    2.7691   -1.7111 H         1 <0>         0.1887
     42 H7         -5.8049    2.5492   -2.4365 H         1 <0>         0.1559
     43 H8         -7.8276    1.1648   -2.4405 H         1 <0>         0.1642
     44 H9         -6.2793   -2.9909   -0.7743 H         1 <0>         0.1004
     45 H10        -7.0801   -1.1867    1.3777 H         1 <0>         0.0655
     46 H11        -7.5276   -2.9074    1.1647 H         1 <0>         0.0813
     47 H12        -5.9856   -2.2991    3.3523 H         1 <0>         0.1002
     48 H13        -4.8765   -4.5336    2.9426 H         1 <0>         0.0657
     49 H14        -6.3812   -4.6485    1.9788 H         1 <0>         0.0669
     50 H15        -3.6290   -4.6181    1.0053 H         1 <0>         0.0695
     51 H16        -5.1337   -4.7330    0.0414 H         1 <0>         0.0655
     52 H17        -3.6296   -2.4712   -0.3154 H         1 <0>         0.1266
     53 H18        -4.4280   -0.8944    1.7005 H         1 <0>         0.0649
     54 H19        -3.5035   -2.2985    2.3570 H         1 <0>         0.0650
     55 H20         4.4292    1.3634   -0.2637 H         1 <0>         0.1269
     56 H21         3.5382    2.6397   -1.1259 H         1 <0>         0.1312
     57 H22         5.9653    3.1450   -1.0461 H         1 <0>         0.1134
     58 H23         5.0305    4.3532   -0.1310 H         1 <0>         0.0894
     59 H24         6.5085    1.9504    1.0385 H         1 <0>         0.0910
     60 H25         5.7964    2.8498    3.2184 H         1 <0>         0.1153
     61 H26         4.9299    4.1775    2.4075 H         1 <0>         0.0895
     62 H27         3.3734    2.3516    3.0367 H         1 <0>         0.1310
     63 H28         4.3364    1.2011    2.0799 H         1 <0>         0.1271
     64 H29         7.9305    3.8870    0.2931 H         1 <0>         0.0765
     65 H30         6.9787    4.9491    1.3581 H         1 <0>         0.0719
     66 H31         7.6224    3.5658    3.3128 H         1 <0>         0.0715
     67 H32         8.5742    2.5037    2.2477 H         1 <0>         0.0728
     68 H33         9.9928    4.4298    1.5948 H         1 <0>         0.0470
     69 H34         9.0410    5.4919    2.6599 H         1 <0>         0.0459
     70 H35        10.9924    4.6532    3.7527 H         1 <0>         0.3870
     71 H36         3.0270    3.6005    1.0143 H         1 <0>         0.4242
@<TRIPOS>BOND
     1    1    6 ar
     2    1    2 ar
     3    1   36 1
     4    2    3 ar
     5    2   37 1
     6    3    4 ar
     7    3   26 1
     8    4    5 ar
     9    4   38 1
    10    5    6 ar
    11    5   39 1
    12    6    7 1
    13    7    8 1
    14    7   40 1
    15    8   18 ar
    16    8    9 ar
    17    9   10 ar
    18   10   11 ar
    19   10   41 1
    20   11   17 ar
    21   11   12 1
    22   12   13 2
    23   12   42 1
    24   13   14 1
    25   13   43 1
    26   14   15 2
    27   14   16 am
    28   16   17 1
    29   16   19 1
    30   17   18 ar
    31   19   24 1
    32   19   20 1
    33   19   44 1
    34   20   21 1
    35   20   45 1
    36   20   46 1
    37   21   25 1
    38   21   22 1
    39   21   47 1
    40   22   23 1
    41   22   48 1
    42   22   49 1
    43   23   24 1
    44   23   50 1
    45   23   51 1
    46   24   25 1
    47   24   52 1
    48   25   53 1
    49   25   54 1
    50   26   31 1
    51   26   27 1
    52   26   71 1
    53   27   28 1
    54   27   55 1
    55   27   56 1
    56   28   29 1
    57   28   57 1
    58   28   58 1
    59   29   30 1
    60   29   32 1
    61   29   59 1
    62   30   31 1
    63   30   60 1
    64   30   61 1
    65   31   62 1
    66   31   63 1
    67   32   33 1
    68   32   64 1
    69   32   65 1
    70   33   34 1
    71   33   66 1
    72   33   67 1
    73   34   35 1
    74   34   68 1
    75   34   69 1
    76   35   70 1
@<TRIPOS>MOLECULE
CHEMBL139653
   71    76     0     0     0
SMALL
USER_CHARGES

@<TRIPOS>ATOM
      1 C1         -0.1106    1.4967    0.4658 C.ar      1 <0>        -0.0976
      2 C2          1.0584    2.2302    0.5168 C.ar      1 <0>        -0.0652
      3 C3          2.2796    1.5990    0.3667 C.ar      1 <0>        -0.0777
      4 C4          2.3348    0.2319    0.1656 C.ar      1 <0>        -0.0608
      5 C5          1.1695   -0.5075    0.1140 C.ar      1 <0>        -0.1329
      6 C6         -0.0588    0.1234    0.2639 C.ar      1 <0>         0.2262
      7 N1         -1.2403   -0.6222    0.2122 N.pl3     1 <0>        -0.6319
      8 C7         -2.3838   -0.0679   -0.3304 C.ar      1 <0>         0.5775
      9 N2         -2.3054    1.1304   -0.8992 N.ar      1 <0>        -0.5789
     10 C8         -3.3680    1.7050   -1.4331 C.ar      1 <0>         0.2544
     11 C9         -4.5886    1.0214   -1.3878 C.ar      1 <0>        -0.2670
     12 C10        -5.8113    1.5830   -1.9539 C.2       1 <0>        -0.0021
     13 C11        -6.9547    0.8540   -1.8684 C.2       1 <0>        -0.2125
     14 C12        -6.9441   -0.4104   -1.2455 C.2       1 <0>         0.5371
     15 O1         -7.9811   -1.0473   -1.1794 O.2       1 <0>        -0.5048
     16 N3         -5.8209   -0.9336   -0.7224 N.am      1 <0>        -0.4978
     17 C13        -4.6338   -0.2500   -0.7753 C.ar      1 <0>         0.4563
     18 N4         -3.5154   -0.7536   -0.2686 N.ar      1 <0>        -0.5544
     19 C14        -5.8669   -2.2526   -0.0866 C.3       1 <0>         0.1232
     20 C15        -6.0347   -3.3592   -1.1528 C.3       1 <0>        -0.1219
     21 C16        -4.7582   -4.2429   -1.0081 C.3       1 <0>        -0.1106
     22 C17        -4.9442   -4.9772    0.3548 C.3       1 <0>        -0.1226
     23 C18        -4.7764   -3.8706    1.4210 C.3       1 <0>        -0.1306
     24 C19        -4.5048   -2.5719    0.6019 C.3       1 <0>        -0.0769
     25 C20        -3.6972   -3.1570   -0.6101 C.3       1 <0>        -0.0990
     26 N5          3.4611    2.3446    0.4180 N.4       1 <0>        -0.3131
     27 C21         4.1806    2.2065   -0.8539 C.3       1 <0>        -0.0058
     28 C22         5.4336    3.0847   -0.8334 C.3       1 <0>        -0.1422
     29 C23         6.3408    2.6433    0.3186 C.3       1 <0>        -0.0994
     30 C24         5.5563    2.7207    1.6316 C.3       1 <0>        -0.1456
     31 C25         4.2988    1.8560    1.5198 C.3       1 <0>        -0.0060
     32 C26         7.5577    3.5676    0.3945 C.3       1 <0>        -0.1143
     33 C27         8.5237    3.0523    1.4633 C.3       1 <0>        -0.1241
     34 C28         9.7406    3.9766    1.5392 C.3       1 <0>         0.0720
     35 O2         10.6428    3.4954    2.5374 O.3       1 <0>        -0.5765
     36 H1         -1.0639    1.9897    0.5872 H         1 <0>         0.1579
     37 H2          1.0188    3.2980    0.6737 H         1 <0>         0.1469
     38 H3          3.2901   -0.2580    0.0484 H         1 <0>         0.1448
     39 H4          1.2132   -1.5751   -0.0435 H         1 <0>         0.1498
     40 H5         -1.2574   -1.5286    0.5572 H         1 <0>         0.4335
     41 H6         -3.2969    2.6794   -1.8935 H         1 <0>         0.1883
     42 H7         -5.8072    2.5533   -2.4283 H         1 <0>         0.1558
     43 H8         -7.8743    1.2445   -2.2786 H         1 <0>         0.1641
     44 H9         -6.6788   -2.2956    0.6393 H         1 <0>         0.1001
     45 H10        -6.9295   -3.9483   -0.9515 H         1 <0>         0.0813
     46 H11        -6.0831   -2.9218   -2.1500 H         1 <0>         0.0655
     47 H12        -4.5104   -4.8663   -1.8672 H         1 <0>         0.1003
     48 H13        -5.9397   -5.4168    0.4168 H         1 <0>         0.0669
     49 H14        -4.1805   -5.7447    0.4802 H         1 <0>         0.0657
     50 H15        -5.6893   -3.7662    2.0072 H         1 <0>         0.0654
     51 H16        -3.9301   -4.0941    2.0706 H         1 <0>         0.0694
     52 H17        -4.0439   -1.7504    1.1503 H         1 <0>         0.1275
     53 H18        -2.7538   -3.6032   -0.2955 H         1 <0>         0.0649
     54 H19        -3.5520   -2.4189   -1.3990 H         1 <0>         0.0648
     55 H20         4.4696    1.1652   -0.9962 H         1 <0>         0.1270
     56 H21         3.5326    2.5179   -1.6732 H         1 <0>         0.1314
     57 H22         5.9674    2.9793   -1.7779 H         1 <0>         0.1135
     58 H23         5.1457    4.1263   -0.6915 H         1 <0>         0.0894
     59 H24         6.6704    1.6180    0.1508 H         1 <0>         0.0911
     60 H25         6.1779    2.3552    2.4490 H         1 <0>         0.1154
     61 H26         5.2710    3.7548    1.8247 H         1 <0>         0.0896
     62 H27         3.7380    1.9087    2.4529 H         1 <0>         0.1311
     63 H28         4.5853    0.8222    1.3269 H         1 <0>         0.1272
     64 H29         8.0612    3.5855   -0.5720 H         1 <0>         0.0765
     65 H30         7.2330    4.5753    0.6537 H         1 <0>         0.0719
     66 H31         8.0202    3.0345    2.4299 H         1 <0>         0.0715
     67 H32         8.8484    2.0446    1.2041 H         1 <0>         0.0729
     68 H33        10.2441    3.9945    0.5726 H         1 <0>         0.0470
     69 H34         9.4158    4.9843    1.7984 H         1 <0>         0.0459
     70 H35        11.4391    4.0341    2.6405 H         1 <0>         0.3870
     71 H36         3.2378    3.3165    0.5720 H         1 <0>         0.4244
@<TRIPOS>BOND
     1    1    6 ar
     2    1    2 ar
     3    1   36 1
     4    2    3 ar
     5    2   37 1
     6    3    4 ar
     7    3   26 1
     8    4    5 ar
     9    4   38 1
    10    5    6 ar
    11    5   39 1
    12    6    7 1
    13    7    8 1
    14    7   40 1
    15    8   18 ar
    16    8    9 ar
    17    9   10 ar
    18   10   11 ar
    19   10   41 1
    20   11   17 ar
    21   11   12 1
    22   12   13 2
    23   12   42 1
    24   13   14 1
    25   13   43 1
    26   14   15 2
    27   14   16 am
    28   16   17 1
    29   16   19 1
    30   17   18 ar
    31   19   24 1
    32   19   20 1
    33   19   44 1
    34   20   21 1
    35   20   45 1
    36   20   46 1
    37   21   25 1
    38   21   22 1
    39   21   47 1
    40   22   23 1
    41   22   48 1
    42   22   49 1
    43   23   24 1
    44   23   50 1
    45   23   51 1
    46   24   25 1
    47   24   52 1
    48   25   53 1
    49   25   54 1
    50   26   31 1
    51   26   27 1
    52   26   71 1
    53   27   28 1
    54   27   55 1
    55   27   56 1
    56   28   29 1
    57   28   57 1
    58   28   58 1
    59   29   30 1
    60   29   32 1
    61   29   59 1
    62   30   31 1
    63   30   60 1
    64   30   61 1
    65   31   62 1
    66   31   63 1
    67   32   33 1
    68   32   64 1
    69   32   65 1
    70   33   34 1
    71   33   66 1
    72   33   67 1
    73   34   35 1
    74   34   68 1
    75   34   69 1
    76   35   70 1
@<TRIPOS>MOLECULE
CHEMBL139653
   71    76     0     0     0
SMALL
USER_CHARGES

@<TRIPOS>ATOM
      1 C1          0.0845    0.0617   -2.6482 C.ar      1 <0>        -0.1080
      2 C2          1.2761    0.5093   -3.1841 C.ar      1 <0>        -0.0634
      3 C3          2.1608   -0.3886   -3.7526 C.ar      1 <0>        -0.0822
      4 C4          1.8562   -1.7371   -3.7864 C.ar      1 <0>        -0.0584
      5 C5          0.6666   -2.1914   -3.2519 C.ar      1 <0>        -0.1379
      6 C6         -0.2246   -1.2921   -2.6805 C.ar      1 <0>         0.2269
      7 N1         -1.4298   -1.7486   -2.1385 N.pl3     1 <0>        -0.6278
      8 C7         -2.5248   -0.9078   -2.0831 C.ar      1 <0>         0.5843
      9 N2         -2.4478    0.2815   -2.6707 N.ar      1 <0>        -0.5779
     10 C8         -3.4656    1.1230   -2.6478 C.ar      1 <0>         0.2541
     11 C9         -4.6366    0.7344   -1.9868 C.ar      1 <0>        -0.2667
     12 C10        -5.8081    1.6022   -1.9138 C.2       1 <0>        -0.0034
     13 C11        -6.9054    1.1488   -1.2531 C.2       1 <0>        -0.2129
     14 C12        -6.8968   -0.1291   -0.6583 C.2       1 <0>         0.5397
     15 O1         -7.8918   -0.5158   -0.0702 O.2       1 <0>        -0.4975
     16 N3         -5.8209   -0.9336   -0.7224 N.am      1 <0>        -0.4965
     17 C13        -4.6817   -0.5368   -1.3738 C.ar      1 <0>         0.4619
     18 N4         -3.6132   -1.3200   -1.4507 N.ar      1 <0>        -0.5679
     19 C14        -5.8669   -2.2526   -0.0866 C.3       1 <0>         0.1250
     20 C15        -4.4788   -2.6252    0.4825 C.3       1 <0>        -0.1195
     21 C16        -4.7118   -2.7870    2.0157 C.3       1 <0>        -0.1085
     22 C17        -4.9709   -1.3367    2.5264 C.3       1 <0>        -0.1224
     23 C18        -6.3591   -0.9642    1.9573 C.3       1 <0>        -0.1174
     24 C19        -6.8079   -2.2245    1.1564 C.3       1 <0>        -0.0826
     25 C20        -6.1714   -3.3640    2.0280 C.3       1 <0>        -0.1308
     26 N5          3.3658    0.0680   -4.2950 N.4       1 <0>        -0.3124
     27 C21         3.4157   -0.2667   -5.7232 C.3       1 <0>        -0.0058
     28 C22         4.6957    0.3017   -6.3397 C.3       1 <0>        -0.1422
     29 C23         5.9101   -0.3032   -5.6293 C.3       1 <0>        -0.0994
     30 C24         5.8093   -0.0115   -4.1293 C.3       1 <0>        -0.1456
     31 C25         4.4880   -0.5683   -3.5948 C.3       1 <0>        -0.0059
     32 C26         7.1916    0.3199   -6.1866 C.3       1 <0>        -0.1142
     33 C27         8.4068   -0.3726   -5.5666 C.3       1 <0>        -0.1241
     34 C28         9.6883    0.2504   -6.1239 C.3       1 <0>         0.0720
     35 O2         10.8233   -0.3964   -5.5447 O.3       1 <0>        -0.5765
     36 H1         -0.6042    0.7630   -2.2007 H         1 <0>         0.1678
     37 H2          1.5170    1.5618   -3.1593 H         1 <0>         0.1467
     38 H3          2.5492   -2.4356   -4.2314 H         1 <0>         0.1446
     39 H4          0.4291   -3.2446   -3.2789 H         1 <0>         0.1497
     40 H5         -1.4972   -2.6557   -1.8015 H         1 <0>         0.4341
     41 H6         -3.3957    2.0881   -3.1273 H         1 <0>         0.1903
     42 H7         -5.8026    2.5798   -2.3729 H         1 <0>         0.1563
     43 H8         -7.7865    1.7694   -1.1832 H         1 <0>         0.1647
     44 H9         -6.2018   -3.0059   -0.7997 H         1 <0>         0.0893
     45 H10        -4.1300   -3.5630    0.0501 H         1 <0>         0.0742
     46 H11        -3.7621   -1.8269    0.2893 H         1 <0>         0.0987
     47 H12        -3.9606   -3.3655    2.5534 H         1 <0>         0.1011
     48 H13        -4.9887   -1.3150    3.6161 H         1 <0>         0.0659
     49 H14        -4.2089   -0.6575    2.1444 H         1 <0>         0.0531
     50 H15        -7.0593   -0.7593    2.7672 H         1 <0>         0.0694
     51 H16        -6.2794   -0.1018    1.2955 H         1 <0>         0.0551
     52 H17        -7.8750   -2.3015    0.9480 H         1 <0>         0.1215
     53 H18        -6.2310   -4.3355    1.5375 H         1 <0>         0.0728
     54 H19        -6.5913   -3.3925    3.0335 H         1 <0>         0.0777
     55 H20         3.4054   -1.3501   -5.8427 H         1 <0>         0.1268
     56 H21         2.5491    0.1617   -6.2268 H         1 <0>         0.1312
     57 H22         4.7318    0.0505   -7.3998 H         1 <0>         0.1133
     58 H23         4.7069    1.3851   -6.2211 H         1 <0>         0.0893
     59 H24         5.9274   -1.3810   -5.7908 H         1 <0>         0.0910
     60 H25         6.6413   -0.4865   -3.6095 H         1 <0>         0.1152
     61 H26         5.8436    1.0654   -3.9648 H         1 <0>         0.0895
     62 H27         4.4130   -0.3625   -2.5270 H         1 <0>         0.1310
     63 H28         4.4548   -1.6452   -3.7596 H         1 <0>         0.1270
     64 H29         7.2153    0.1949   -7.2692 H         1 <0>         0.0764
     65 H30         7.2150    1.3820   -5.9429 H         1 <0>         0.0719
     66 H31         8.3831   -0.2477   -4.4840 H         1 <0>         0.0715
     67 H32         8.3834   -1.4348   -5.8104 H         1 <0>         0.0728
     68 H33         9.7120    0.1254   -7.2064 H         1 <0>         0.0470
     69 H34         9.7117    1.3125   -5.8801 H         1 <0>         0.0459
     70 H35        11.6724   -0.0515   -5.8532 H         1 <0>         0.3870
     71 H36         3.4255    1.0691   -4.1839 H         1 <0>         0.4242
@<TRIPOS>BOND
     1    1    6 ar
     2    1    2 ar
     3    1   36 1
     4    2    3 ar
     5    2   37 1
     6    3    4 ar
     7    3   26 1
     8    4    5 ar
     9    4   38 1
    10    5    6 ar
    11    5   39 1
    12    6    7 1
    13    7    8 1
    14    7   40 1
    15    8   18 ar
    16    8    9 ar
    17    9   10 ar
    18   10   11 ar
    19   10   41 1
    20   11   17 ar
    21   11   12 1
    22   12   13 2
    23   12   42 1
    24   13   14 1
    25   13   43 1
    26   14   15 2
    27   14   16 am
    28   16   17 1
    29   16   19 1
    30   17   18 ar
    31   19   24 1
    32   19   20 1
    33   19   44 1
    34   20   21 1
    35   20   45 1
    36   20   46 1
    37   21   25 1
    38   21   22 1
    39   21   47 1
    40   22   23 1
    41   22   48 1
    42   22   49 1
    43   23   24 1
    44   23   50 1
    45   23   51 1
    46   24   25 1
    47   24   52 1
    48   25   53 1
    49   25   54 1
    50   26   31 1
    51   26   27 1
    52   26   71 1
    53   27   28 1
    54   27   55 1
    55   27   56 1
    56   28   29 1
    57   28   57 1
    58   28   58 1
    59   29   30 1
    60   29   32 1
    61   29   59 1
    62   30   31 1
    63   30   60 1
    64   30   61 1
    65   31   62 1
    66   31   63 1
    67   32   33 1
    68   32   64 1
    69   32   65 1
    70   33   34 1
    71   33   66 1
    72   33   67 1
    73   34   35 1
    74   34   68 1
    75   34   69 1
    76   35   70 1
@<TRIPOS>MOLECULE
CHEMBL340259
   63    68     0     0     0
SMALL
USER_CHARGES

@<TRIPOS>ATOM
      1 C1         -0.0166    1.3739    0.0096 C.ar      1 <0>        -0.1426
      2 C2          1.1745    2.0867    0.0021 C.ar      1 <0>        -0.0923
      3 C3          2.3868    1.4285   -0.0348 C.ar      1 <0>        -0.1312
      4 C4          2.4143    0.0376   -0.0395 C.ar      1 <0>         0.0933
      5 C5          1.2183   -0.6815    0.0132 C.ar      1 <0>        -0.0821
      6 C6          0.0021   -0.0041    0.0020 C.ar      1 <0>        -0.0493
      7 C7          1.6051   -2.1133    0.0919 C.2       1 <0>        -0.1255
      8 C8          2.9583   -2.1391   -0.0190 C.2       1 <0>         0.1036
      9 N1          3.4555   -0.8755   -0.1084 N.pl3     1 <0>        -0.4722
     10 C9          4.8391   -0.4486   -0.2576 C.3       1 <0>         0.1024
     11 C10         5.7894   -1.6058   -0.5255 C.3       1 <0>         0.0506
     12 O1          7.1299   -1.1462   -0.3233 O.3       1 <0>        -0.3703
     13 C11         8.0953   -1.7394   -1.1898 C.3       1 <0>         0.0525
     14 C12         8.7109   -2.9620   -0.4994 C.3       1 <0>         0.0277
     15 O2          9.2885   -3.8225   -1.4875 O.3       1 <0>        -0.3801
     16 C13         9.0314   -5.2132   -1.2659 C.3       1 <0>         0.0398
     17 C14         7.9680   -5.6916   -2.2585 C.3       1 <0>         0.0355
     18 O3          6.9996   -6.4811   -1.5720 O.3       1 <0>        -0.3797
     19 C15         5.6608   -5.9732   -1.6439 C.3       1 <0>         0.0530
     20 C16         4.7034   -7.1244   -1.3621 C.3       1 <0>         0.1060
     21 N2          3.3302   -6.6800   -1.1453 N.pl3     1 <0>        -0.4744
     22 C17         2.8936   -5.5478   -0.5296 C.2       1 <0>         0.1018
     23 C18         1.5418   -5.5024   -0.5226 C.2       1 <0>        -0.1218
     24 C19         1.0852   -6.7174   -1.2519 C.ar      1 <0>        -0.0857
     25 C20         2.2450   -7.4280   -1.5734 C.ar      1 <0>         0.0950
     26 C21         2.1408   -8.6697   -2.1922 C.ar      1 <0>        -0.1325
     27 C22         0.8984   -9.1614   -2.5272 C.ar      1 <0>        -0.0915
     28 C23        -0.2479   -8.4284   -2.2696 C.ar      1 <0>        -0.1439
     29 C24        -0.1592   -7.1993   -1.6502 C.ar      1 <0>        -0.0478
     30 C25         0.5729   -4.5381    0.0374 C.2       1 <0>        -0.0421
     31 C26         0.6102   -3.1819    0.2889 C.2       1 <0>        -0.0327
     32 C27        -0.6885   -2.8720    0.9676 C.2       1 <0>         0.5479
     33 O4         -0.9960   -1.8233    1.4933 O.2       1 <0>        -0.4472
     34 N3         -1.4695   -3.9500    0.9366 N.am      1 <0>        -0.6870
     35 C28        -0.7838   -4.9965    0.4674 C.2       1 <0>         0.5499
     36 O5         -1.2080   -6.1342    0.4380 O.2       1 <0>        -0.4476
     37 H1         -0.9600    1.8997    0.0275 H         1 <0>         0.1259
     38 H2          1.1538    3.1654    0.0312 H         1 <0>         0.1271
     39 H3          3.3097    1.9886   -0.0655 H         1 <0>         0.1221
     40 H4         -0.9300   -0.5482   -0.0412 H         1 <0>         0.1276
     41 H5          3.5547   -3.0376   -0.0353 H         1 <0>         0.1627
     42 H6          4.9027    0.2553   -1.0888 H         1 <0>         0.0922
     43 H7          5.1484    0.0596    0.6560 H         1 <0>         0.0935
     44 H8          5.5771   -2.4232    0.1623 H         1 <0>         0.0641
     45 H9          5.6732   -1.9493   -1.5532 H         1 <0>         0.0686
     46 H10         7.6129   -2.0498   -2.1165 H         1 <0>         0.0668
     47 H11         8.8798   -1.0145   -1.4098 H         1 <0>         0.1034
     48 H12         9.4855   -2.6376    0.1957 H         1 <0>         0.0749
     49 H13         7.9361   -3.4984    0.0479 H         1 <0>         0.0602
     50 H14         9.9504   -5.7804   -1.4145 H         1 <0>         0.0962
     51 H15         8.6733   -5.3631   -0.2479 H         1 <0>         0.0725
     52 H16         7.4799   -4.8286   -2.7114 H         1 <0>         0.0685
     53 H17         8.4390   -6.2937   -3.0352 H         1 <0>         0.0870
     54 H18         5.5227   -5.1898   -0.8997 H         1 <0>         0.0556
     55 H19         5.4733   -5.5697   -2.6395 H         1 <0>         0.0674
     56 H20         4.7221   -7.8078   -2.2116 H         1 <0>         0.1000
     57 H21         5.0442   -7.6582   -0.4759 H         1 <0>         0.0902
     58 H22         3.5411   -4.7974   -0.1042 H         1 <0>         0.1628
     59 H23         3.0287   -9.2443   -2.4114 H         1 <0>         0.1217
     60 H24         0.8164  -10.1306   -2.9955 H         1 <0>         0.1264
     61 H25        -1.2146   -8.8188   -2.5514 H         1 <0>         0.1256
     62 H26        -1.0503   -6.6089   -1.5026 H         1 <0>         0.1283
     63 H27        -2.3996   -3.9728    1.2080 H         1 <0>         0.4297
@<TRIPOS>BOND
     1    1    6 ar
     2    1    2 ar
     3    1   37 1
     4    2    3 ar
     5    2   38 1
     6    3    4 ar
     7    3   39 1
     8    4    9 1
     9    4    5 ar
    10    5    6 ar
    11    5    7 1
    12    6   40 1
    13    7   31 1
    14    7    8 2
    15    8    9 1
    16    8   41 1
    17    9   10 1
    18   10   11 1
    19   10   42 1
    20   10   43 1
    21   11   12 1
    22   11   44 1
    23   11   45 1
    24   12   13 1
    25   13   14 1
    26   13   46 1
    27   13   47 1
    28   14   15 1
    29   14   48 1
    30   14   49 1
    31   15   16 1
    32   16   17 1
    33   16   50 1
    34   16   51 1
    35   17   18 1
    36   17   52 1
    37   17   53 1
    38   18   19 1
    39   19   20 1
    40   19   54 1
    41   19   55 1
    42   20   21 1
    43   20   56 1
    44   20   57 1
    45   21   25 1
    46   21   22 1
    47   22   23 2
    48   22   58 1
    49   23   24 1
    50   23   30 1
    51   24   29 ar
    52   24   25 ar
    53   25   26 ar
    54   26   27 ar
    55   26   59 1
    56   27   28 ar
    57   27   60 1
    58   28   29 ar
    59   28   61 1
    60   29   62 1
    61   30   35 1
    62   30   31 2
    63   31   32 1
    64   32   33 2
    65   32   34 am
    66   34   35 am
    67   34   63 1
    68   35   36 2
@<TRIPOS>MOLECULE
CHEMBL445945
   40    43     0     0     0
SMALL
USER_CHARGES

@<TRIPOS>ATOM
      1 C1         -0.0158    1.3873    0.0730 C.ar      1 <0>        -0.1612
      2 C2          1.1603    2.0850    0.0462 C.ar      1 <0>        -0.0727
      3 C3          2.3617    1.3601    0.0232 C.ar      1 <0>        -0.0543
      4 C4          2.3110   -0.0560    0.0287 C.ar      1 <0>         0.1156
      5 C5          3.5139   -0.7853    0.0057 C.ar      1 <0>        -0.0657
      6 C6          4.7108   -0.1433   -0.0210 C.ar      1 <0>        -0.0991
      7 C7          4.7867    1.2564   -0.0268 C.ar      1 <0>         0.1341
      8 C8          3.6152    2.0080   -0.0055 C.ar      1 <0>        -0.0626
      9 C9          4.0243    3.4281   -0.0186 C.2       1 <0>        -0.2749
     10 C10         3.2064    4.5358   -0.0038 C.2       1 <0>         0.2420
     11 N1          3.7475    5.7794    0.1001 N.pl3     1 <0>        -0.6261
     12 C11         2.9174    6.9035    0.1150 C.ar      1 <0>         0.2156
     13 C12         1.5391    6.7524    0.0296 C.ar      1 <0>        -0.1932
     14 C13         0.7218    7.8654    0.0446 C.ar      1 <0>         0.0239
     15 C14         1.2739    9.1294    0.1446 C.ar      1 <0>        -0.7062
     16 C15         2.6455    9.2835    0.2298 C.ar      1 <0>         0.0233
     17 C16         3.4684    8.1744    0.2211 C.ar      1 <0>        -0.1771
     18 S1          0.2273   10.5468    0.1628 S.o2      1 <0>         2.7044
     19 O1          1.0165   11.6401   -0.2857 O.2       1 <0>        -0.9621
     20 O2         -0.9824   10.1667   -0.4786 O.2       1 <0>        -0.9623
     21 N2         -0.1523   10.8548    1.7450 N.pl3     1 <0>        -1.2502
     22 C17         5.4915    3.4017   -0.0498 C.2       1 <0>         0.5633
     23 O3          6.2267    4.3732   -0.0685 O.2       1 <0>        -0.5313
     24 N3          5.8796    2.1152   -0.0521 N.am      1 <0>        -0.6436
     25 N4          1.1285   -0.6780    0.0549 N.ar      1 <0>        -0.4620
     26 C18         0.0033   -0.0042    0.0769 C.ar      1 <0>         0.1225
     27 H1         -0.9576    1.9154    0.0957 H         1 <0>         0.1407
     28 H2          1.1643    3.1650    0.0425 H         1 <0>         0.1281
     29 H3          3.4856   -1.8649    0.0096 H         1 <0>         0.1464
     30 H4          5.6220   -0.7228   -0.0376 H         1 <0>         0.1371
     31 H5          2.1352    4.4171   -0.0747 H         1 <0>         0.1702
     32 H6          4.7095    5.8860    0.1637 H         1 <0>         0.4321
     33 H7          1.1073    5.7656   -0.0488 H         1 <0>         0.1380
     34 H8         -0.3498    7.7486   -0.0221 H         1 <0>         0.1520
     35 H9          3.0735   10.2720    0.3077 H         1 <0>         0.1521
     36 H10         4.5393    8.2952    0.2921 H         1 <0>         0.1432
     37 H11         0.1992   10.2859    2.4477 H         1 <0>         0.4168
     38 H12        -0.7262   11.6040    1.9691 H         1 <0>         0.4220
     39 H13         6.8044    1.8230   -0.0700 H         1 <0>         0.4191
     40 H14        -0.9324   -0.5432    0.0985 H         1 <0>         0.1621
@<TRIPOS>BOND
     1    1   26 ar
     2    1    2 ar
     3    1   27 1
     4    2    3 ar
     5    2   28 1
     6    3    8 ar
     7    3    4 ar
     8    4    5 ar
     9    4   25 ar
    10    5    6 ar
    11    5   29 1
    12    6    7 ar
    13    6   30 1
    14    7   24 1
    15    7    8 ar
    16    8    9 1
    17    9   10 2
    18    9   22 1
    19   10   11 1
    20   10   31 1
    21   11   12 1
    22   11   32 1
    23   12   17 ar
    24   12   13 ar
    25   13   14 ar
    26   13   33 1
    27   14   15 ar
    28   14   34 1
    29   15   16 ar
    30   15   18 1
    31   16   17 ar
    32   16   35 1
    33   17   36 1
    34   18   19 2
    35   18   20 2
    36   18   21 1
    37   21   37 1
    38   21   38 1
    39   22   23 2
    40   22   24 am
    41   24   39 1
    42   25   26 ar
    43   26   40 1
@<TRIPOS>MOLECULE
CHEMBL445945
   40    43     0     0     0
SMALL
NO_CHARGES

@<TRIPOS>ATOM
      1 C1          0.7624    2.0799   -2.8842 C.ar      1 <0>        -0.1571
      2 C2          1.7016    2.5670   -2.0174 C.ar      1 <0>        -0.1211
      3 C3          2.8110    1.7610   -1.7194 C.ar      1 <0>        -0.0550
      4 C4          2.9151    0.4832   -2.3230 C.ar      1 <0>         0.1140
      5 C5          4.0264   -0.3270   -2.0260 C.ar      1 <0>        -0.0670
      6 C6          4.9891    0.1068   -1.1713 C.ar      1 <0>        -0.0989
      7 C7          4.9083    1.3665   -0.5620 C.ar      1 <0>         0.1398
      8 C8          3.8224    2.1934   -0.8350 C.ar      1 <0>        -0.0762
      9 C9          4.0263    3.4305   -0.0526 C.2       1 <0>        -0.2939
     10 C10         3.2064    4.5358   -0.0038 C.2       1 <0>         0.2633
     11 N1          1.8573    4.3864   -0.0931 N.pl3     1 <0>        -0.6276
     12 C11         1.0341    5.5119   -0.1835 C.ar      1 <0>         0.2020
     13 C12         1.5923    6.7841   -0.1880 C.ar      1 <0>        -0.1833
     14 C13         0.7758    7.8943   -0.2774 C.ar      1 <0>         0.0232
     15 C14        -0.5959    7.7407   -0.3624 C.ar      1 <0>        -0.7011
     16 C15        -1.1548    6.4758   -0.3582 C.ar      1 <0>         0.0221
     17 C16        -0.3439    5.3611   -0.2748 C.ar      1 <0>        -0.1768
     18 S1         -1.6339    9.1600   -0.4757 S.o2      1 <0>         2.7036
     19 O1         -2.9122    8.7677    0.0054 O.2       1 <0>        -0.9612
     20 O2         -0.9062   10.2416    0.0898 O.2       1 <0>        -0.9607
     21 N2         -1.8190    9.5040   -2.0850 N.pl3     1 <0>        -1.2499
     22 C17         5.2919    3.2252    0.6619 C.2       1 <0>         0.5745
     23 O3          5.8233    4.0152    1.4223 O.2       1 <0>        -0.5178
     24 N3          5.7590    2.0098    0.3298 N.am      1 <0>        -0.6456
     25 N4          1.9627    0.0658   -3.1623 N.ar      1 <0>        -0.4582
     26 C18         0.9239    0.8158   -3.4433 C.ar      1 <0>         0.1189
     27 H1         -0.1055    2.6735   -3.1309 H         1 <0>         0.1381
     28 H2          1.5925    3.5459   -1.5745 H         1 <0>         0.1509
     29 H3          4.1146   -1.3025   -2.4811 H         1 <0>         0.1461
     30 H4          5.8333   -0.5318   -0.9569 H         1 <0>         0.1376
     31 H5          3.6344    5.5213    0.1053 H         1 <0>         0.1752
     32 H6          1.4667    3.4985   -0.0941 H         1 <0>         0.4286
     33 H7          2.6634    6.9048   -0.1213 H         1 <0>         0.1441
     34 H8          1.2090    8.8836   -0.2806 H         1 <0>         0.1533
     35 H9         -2.2265    6.3594   -0.4247 H         1 <0>         0.1531
     36 H10        -0.7807    4.3734   -0.2761 H         1 <0>         0.1425
     37 H11        -1.3842    8.9505   -2.7524 H         1 <0>         0.4167
     38 H12        -2.3622   10.2590   -2.3602 H         1 <0>         0.4224
     39 H13         6.5850    1.6302    0.6682 H         1 <0>         0.4197
     40 H14         0.1748    0.4428   -4.1260 H         1 <0>         0.1616
@<TRIPOS>BOND
     1    1   26 ar
     2    1    2 ar
     3    1   27 1
     4    2    3 ar
     5    2   28 1
     6    3    8 ar
     7    3    4 ar
     8    4    5 ar
     9    4   25 ar
    10    5    6 ar
    11    5   29 1
    12    6    7 ar
    13    6   30 1
    14    7   24 1
    15    7    8 ar
    16    8    9 1
    17    9   10 2
    18    9   22 1
    19   10   11 1
    20   10   31 1
    21   11   12 1
    22   11   32 1
    23   12   17 ar
    24   12   13 ar
    25   13   14 ar
    26   13   33 1
    27   14   15 ar
    28   14   34 1
    29   15   16 ar
    30   15   18 1
    31   16   17 ar
    32   16   35 1
    33   17   36 1
    34   18   19 2
    35   18   20 2
    36   18   21 1
    37   21   37 1
    38   21   38 1
    39   22   23 2
    40   22   24 am
    41   24   39 1
    42   25   26 ar
    43   26   40 1
@<TRIPOS>MOLECULE
CHEMBL134976
   48    52     0     0     0
SMALL
USER_CHARGES

@<TRIPOS>ATOM
      1 C1         -0.0178    1.4608    0.0101 C.3       1 <0>         0.0688
      2 N1          0.0021   -0.0041    0.0020 N.pl3     1 <0>        -0.9265
      3 C2          0.0230   -0.7055    1.2019 C.ar      1 <0>         0.3768
      4 C3          0.0192   -0.0102    2.4071 C.ar      1 <0>        -0.2068
      5 C4          0.0402   -0.7207    3.5935 C.ar      1 <0>        -0.0454
      6 C5          0.0644   -2.1081    3.5348 C.ar      1 <0>        -0.2102
      7 C6          0.0667   -2.7328    2.3041 C.ar      1 <0>         0.1445
      8 N2          0.0409   -2.0292    1.1878 N.ar      1 <0>        -0.4990
      9 S1         -0.0004   -0.8243   -1.4366 S.o2      1 <0>         2.6852
     10 O1         -0.5312   -2.1147   -1.1675 O.2       1 <0>        -0.9188
     11 O2         -0.5723    0.0488   -2.4009 O.2       1 <0>        -0.9620
     12 C7          1.6818   -1.0594   -1.9051 C.ar      1 <0>        -0.7239
     13 C8          2.3211   -0.1060   -2.6778 C.ar      1 <0>        -0.0051
     14 C9          3.6380   -0.2832   -3.0479 C.ar      1 <0>        -0.1609
     15 C10         4.3263   -1.4285   -2.6408 C.ar      1 <0>         0.2111
     16 C11         3.6746   -2.3868   -1.8609 C.ar      1 <0>        -0.2146
     17 C12         2.3591   -2.1939   -1.4938 C.ar      1 <0>         0.0156
     18 N3          5.6325   -1.6111   -3.0046 N.2       1 <0>        -0.5538
     19 C13         6.5080   -2.0171   -2.1196 C.2       1 <0>         0.2973
     20 C14         7.8606   -2.2061   -2.4963 C.2       1 <0>        -0.3530
     21 C15         8.9648   -2.6619   -1.6293 C.ar      1 <0>         0.0133
     22 C16        10.1071   -2.6946   -2.4443 C.ar      1 <0>         0.1043
     23 C17        11.3229   -3.0937   -1.8887 C.ar      1 <0>        -0.1029
     24 C18        11.4246   -3.4502   -0.5821 C.ar      1 <0>        -0.0799
     25 C19        10.2968   -3.4311    0.2720 C.ar      1 <0>         0.0491
     26 C20         9.0725   -3.0257   -0.2972 C.ar      1 <0>        -0.1291
     27 S2          7.9653   -3.1448    1.0832 S.3       1 <0>         0.0564
     28 C21         9.0767   -3.6734    2.2313 C.2       1 <0>         0.0417
     29 N4         10.2010   -3.7464    1.5807 N.2       1 <0>        -0.5019
     30 N5          9.7362   -2.2908   -3.7136 N.pl3     1 <0>        -0.6235
     31 H1         10.3390   -2.2242   -4.4707 H         1 <0>         0.4036
     32 C22         8.4084   -2.0056   -3.7537 C.2       1 <0>         0.4926
     33 O3          7.7292   -1.5891   -4.8467 O.3       1 <0>        -0.6317
     34 H2          1.0048    1.8381    0.0023 H         1 <0>         0.0722
     35 H3         -0.5450    1.8219   -0.8730 H         1 <0>         0.0979
     36 H4         -0.5280    1.8123    0.9069 H         1 <0>         0.0861
     37 H5          0.0005    1.0696    2.4161 H         1 <0>         0.1383
     38 H6          0.0382   -0.2082    4.5441 H         1 <0>         0.1361
     39 H7          0.0815   -2.6922    4.4431 H         1 <0>         0.1356
     40 H8          0.0858   -3.8115    2.2539 H         1 <0>         0.1625
     41 H9          1.7876    0.7789   -2.9921 H         1 <0>         0.1307
     42 H10         4.1356    0.4616   -3.6513 H         1 <0>         0.1306
     43 H11         4.2007   -3.2746   -1.5426 H         1 <0>         0.1229
     44 H12         1.8551   -2.9319   -0.8874 H         1 <0>         0.1348
     45 H13         6.1990   -2.2079   -1.1025 H         1 <0>         0.0779
     46 H14        12.2041   -3.1202   -2.5125 H         1 <0>         0.1242
     47 H15        12.3833   -3.7539   -0.1882 H         1 <0>         0.1262
     48 H16         8.8971   -3.9015    3.2715 H         1 <0>         0.2127
@<TRIPOS>BOND
     1    1    2 1
     2    1   34 1
     3    1   35 1
     4    1   36 1
     5    2    3 1
     6    2    9 1
     7    3    8 ar
     8    3    4 ar
     9    4    5 ar
    10    4   37 1
    11    5    6 ar
    12    5   38 1
    13    6    7 ar
    14    6   39 1
    15    7    8 ar
    16    7   40 1
    17    9   10 2
    18    9   11 2
    19    9   12 1
    20   12   17 ar
    21   12   13 ar
    22   13   14 ar
    23   13   41 1
    24   14   15 ar
    25   14   42 1
    26   15   16 ar
    27   15   18 1
    28   16   17 ar
    29   16   43 1
    30   17   44 1
    31   18   19 2
    32   19   20 1
    33   19   45 1
    34   20   32 2
    35   20   21 1
    36   21   26 ar
    37   21   22 ar
    38   22   23 ar
    39   22   30 1
    40   23   24 ar
    41   23   46 1
    42   24   25 ar
    43   24   47 1
    44   25   29 1
    45   25   26 ar
    46   26   27 1
    47   27   28 1
    48   28   29 2
    49   28   48 1
    50   30   31 1
    51   30   32 1
    52   32   33 1
@<TRIPOS>MOLECULE
CHEMBL134976
   49    53     0     0     0
SMALL
USER_CHARGES

@<TRIPOS>ATOM
      1 C1         -0.0178    1.4608    0.0101 C.3       1 <0>         0.0669
      2 N1          0.0021   -0.0041    0.0020 N.pl3     1 <0>        -0.9248
      3 C2          0.0230   -0.7055    1.2019 C.ar      1 <0>         0.3698
      4 C3          0.0192   -0.0102    2.4071 C.ar      1 <0>        -0.2028
      5 C4          0.0402   -0.7207    3.5935 C.ar      1 <0>        -0.0439
      6 C5          0.0644   -2.1081    3.5348 C.ar      1 <0>        -0.2045
      7 C6          0.0667   -2.7328    2.3041 C.ar      1 <0>         0.1431
      8 N2          0.0409   -2.0292    1.1878 N.ar      1 <0>        -0.5022
      9 S1         -0.0004   -0.8243   -1.4366 S.o2      1 <0>         2.6834
     10 O1         -0.5312   -2.1147   -1.1675 O.2       1 <0>        -0.9082
     11 O2         -0.5723    0.0488   -2.4009 O.2       1 <0>        -0.9518
     12 C7          1.6818   -1.0594   -1.9051 C.ar      1 <0>        -0.6916
     13 C8          2.3211   -0.1060   -2.6778 C.ar      1 <0>        -0.0074
     14 C9          3.6380   -0.2832   -3.0479 C.ar      1 <0>        -0.1344
     15 C10         4.3263   -1.4285   -2.6408 C.ar      1 <0>         0.1576
     16 C11         3.6746   -2.3868   -1.8609 C.ar      1 <0>        -0.1825
     17 C12         2.3591   -2.1939   -1.4938 C.ar      1 <0>         0.0111
     18 N3          5.6325   -1.6111   -3.0046 N.2       1 <0>        -0.5018
     19 C13         6.5080   -2.0171   -2.1196 C.2       1 <0>         0.2588
     20 C14         7.8606   -2.2061   -2.4963 C.2       1 <0>        -0.1887
     21 C15         8.9648   -2.6619   -1.6293 C.ar      1 <0>        -0.0160
     22 C16        10.1071   -2.6946   -2.4443 C.ar      1 <0>         0.1094
     23 C17        11.3229   -3.0937   -1.8887 C.ar      1 <0>        -0.0958
     24 C18        11.4246   -3.4502   -0.5821 C.ar      1 <0>        -0.0420
     25 C19        10.2968   -3.4311    0.2720 C.ar      1 <0>         0.0737
     26 C20         9.0725   -3.0257   -0.2972 C.ar      1 <0>        -0.1293
     27 S2          7.9653   -3.1448    1.0832 S.3       1 <0>         0.0988
     28 C21         9.0767   -3.6734    2.2313 C.2       1 <0>         0.0687
     29 N4         10.2010   -3.7464    1.5807 N.2       1 <0>        -0.5022
     30 N5          9.7362   -2.2908   -3.7136 N.pl3     1 <0>        -0.5713
     31 H1         10.3390   -2.2242   -4.4707 H         1 <0>         0.4249
     32 C22         8.4084   -2.0056   -3.7537 C.2       1 <0>         0.3513
     33 O3          7.7292   -1.5891   -4.8467 O.3       1 <0>        -0.4402
     34 H2          1.0048    1.8381    0.0023 H         1 <0>         0.0717
     35 H3         -0.5450    1.8219   -0.8730 H         1 <0>         0.0997
     36 H4         -0.5280    1.8123    0.9069 H         1 <0>         0.0904
     37 H5          0.0005    1.0696    2.4161 H         1 <0>         0.1398
     38 H6          0.0382   -0.2082    4.5441 H         1 <0>         0.1388
     39 H7          0.0815   -2.6922    4.4431 H         1 <0>         0.1383
     40 H8          0.0858   -3.8115    2.2539 H         1 <0>         0.1642
     41 H9          1.7876    0.7789   -2.9921 H         1 <0>         0.1426
     42 H10         4.1356    0.4616   -3.6513 H         1 <0>         0.1374
     43 H11         4.2007   -3.2746   -1.5426 H         1 <0>         0.1312
     44 H12         1.8551   -2.9319   -0.8874 H         1 <0>         0.1467
     45 H13         6.1990   -2.2079   -1.1025 H         1 <0>         0.1074
     46 H14        12.2041   -3.1202   -2.5125 H         1 <0>         0.1398
     47 H15        12.3833   -3.7539   -0.1882 H         1 <0>         0.1439
     48 H16         8.8971   -3.9015    3.2715 H         1 <0>         0.2247
     49 H17         7.7077   -0.6283   -4.9539 H         1 <0>         0.4073
@<TRIPOS>BOND
     1    1    2 1
     2    1   34 1
     3    1   35 1
     4    1   36 1
     5    2    3 1
     6    2    9 1
     7    3    8 ar
     8    3    4 ar
     9    4    5 ar
    10    4   37 1
    11    5    6 ar
    12    5   38 1
    13    6    7 ar
    14    6   39 1
    15    7    8 ar
    16    7   40 1
    17    9   10 2
    18    9   11 2
    19    9   12 1
    20   12   17 ar
    21   12   13 ar
    22   13   14 ar
    23   13   41 1
    24   14   15 ar
    25   14   42 1
    26   15   16 ar
    27   15   18 1
    28   16   17 ar
    29   16   43 1
    30   17   44 1
    31   18   19 2
    32   19   20 1
    33   19   45 1
    34   20   32 2
    35   20   21 1
    36   21   26 ar
    37   21   22 ar
    38   22   23 ar
    39   22   30 1
    40   23   24 ar
    41   23   46 1
    42   24   25 ar
    43   24   47 1
    44   25   29 1
    45   25   26 ar
    46   26   27 1
    47   27   28 1
    48   28   29 2
    49   28   48 1
    50   30   31 1
    51   30   32 1
    52   32   33 1
    53   33   49 1
@<TRIPOS>MOLECULE
CHEMBL135029
   42    46     0     0     0
SMALL
USER_CHARGES

@<TRIPOS>ATOM
      1 C1         -0.0169    1.3950    0.0097 C.ar      1 <0>        -0.1074
      2 C2          1.1592    2.1090    0.0023 C.ar      1 <0>        -0.1276
      3 C3          2.3814    1.4436   -0.0129 C.ar      1 <0>         0.1096
      4 C4          2.4058    0.0391   -0.0206 C.ar      1 <0>        -0.0260
      5 C5          1.2178   -0.6825   -0.0131 C.ar      1 <0>        -0.0866
      6 C6          0.0021   -0.0041    0.0020 C.ar      1 <0>        -0.0560
      7 C7         -1.2677   -0.7613    0.0105 C.2       1 <0>         0.0384
      8 C8         -2.5210   -0.2394    0.0202 C.2       1 <0>        -0.0533
      9 N1         -3.3856   -1.2652    0.0250 N.2       1 <0>        -0.4857
     10 C9         -2.7149   -2.3828    0.0186 C.2       1 <0>         0.1497
     11 O1         -1.4036   -2.1055    0.0042 O.3       1 <0>        -0.2008
     12 C10         3.8310   -0.3458   -0.0367 C.2       1 <0>        -0.3640
     13 C11         4.5523    0.8379   -0.0375 C.2       1 <0>         0.4920
     14 N2          3.6912    1.8895   -0.0234 N.pl3     1 <0>        -0.6336
     15 H1          3.9576    2.8222   -0.0214 H         1 <0>         0.4006
     16 O2          5.9012    0.9318   -0.0499 O.3       1 <0>        -0.6359
     17 C12         4.3561   -1.6611   -0.0485 C.2       1 <0>         0.2918
     18 N3          5.6521   -1.8487   -0.0623 N.2       1 <0>        -0.5544
     19 C13         6.1594   -3.1193   -0.0737 C.ar      1 <0>         0.1656
     20 C14         5.6350   -4.0978    0.7745 C.ar      1 <0>        -0.1783
     21 C15         6.1604   -5.3648    0.7448 C.ar      1 <0>        -0.0676
     22 C16         7.2117   -5.7019   -0.1162 C.ar      1 <0>        -0.1497
     23 C17         7.7327   -4.7432   -0.9539 C.ar      1 <0>        -0.0681
     24 C18         7.1988   -3.4542   -0.9333 C.ar      1 <0>        -0.1199
     25 C19         8.8792   -5.1772   -1.8689 C.3       1 <0>        -0.5302
     26 S1          9.4046   -6.7598   -1.0940 S.o2      1 <0>         2.3840
     27 O3          9.5888   -7.7420   -2.1042 O.2       1 <0>        -0.9404
     28 O4         10.4433   -6.5055   -0.1582 O.2       1 <0>        -0.9308
     29 C20         7.8371   -7.0961   -0.1933 C.3       1 <0>        -0.5198
     30 H2         -0.9616    1.9182    0.0261 H         1 <0>         0.1212
     31 H3          1.1338    3.1887    0.0080 H         1 <0>         0.1190
     32 H4          1.2377   -1.7623   -0.0194 H         1 <0>         0.1177
     33 H5         -2.7755    0.8102    0.0235 H         1 <0>         0.1825
     34 H6         -3.1463   -3.3729    0.0203 H         1 <0>         0.2457
     35 H7          3.6877   -2.5095   -0.0461 H         1 <0>         0.0754
     36 H8          4.8245   -3.8591    1.4472 H         1 <0>         0.1237
     37 H9          5.7537   -6.1198    1.4013 H         1 <0>         0.1183
     38 H10         7.6039   -2.7019   -1.5938 H         1 <0>         0.1271
     39 H11         8.5249   -5.3404   -2.8867 H         1 <0>         0.1472
     40 H12         9.6887   -4.4474   -1.8520 H         1 <0>         0.1449
     41 H13         8.0373   -7.4890    0.8036 H         1 <0>         0.1394
     42 H14         7.2014   -7.7776   -0.7586 H         1 <0>         0.1420
@<TRIPOS>BOND
     1    1    6 ar
     2    1    2 ar
     3    1   30 1
     4    2    3 ar
     5    2   31 1
     6    3   14 1
     7    3    4 ar
     8    4    5 ar
     9    4   12 1
    10    5    6 ar
    11    5   32 1
    12    6    7 1
    13    7   11 1
    14    7    8 2
    15    8    9 1
    16    8   33 1
    17    9   10 2
    18   10   11 1
    19   10   34 1
    20   12   13 2
    21   12   17 1
    22   13   14 1
    23   13   16 1
    24   14   15 1
    25   17   18 2
    26   17   35 1
    27   18   19 1
    28   19   24 ar
    29   19   20 ar
    30   20   21 ar
    31   20   36 1
    32   21   22 ar
    33   21   37 1
    34   22   29 1
    35   22   23 ar
    36   23   24 ar
    37   23   25 1
    38   24   38 1
    39   25   26 1
    40   25   39 1
    41   25   40 1
    42   26   27 2
    43   26   28 2
    44   26   29 1
    45   29   41 1
    46   29   42 1
@<TRIPOS>MOLECULE
CHEMBL135029
   43    47     0     0     0
SMALL
USER_CHARGES

@<TRIPOS>ATOM
      1 C1         -0.0169    1.3950    0.0097 C.ar      1 <0>        -0.0765
      2 C2          1.1592    2.1090    0.0023 C.ar      1 <0>        -0.1085
      3 C3          2.3814    1.4436   -0.0129 C.ar      1 <0>         0.1068
      4 C4          2.4058    0.0391   -0.0206 C.ar      1 <0>        -0.0626
      5 C5          1.2178   -0.6825   -0.0131 C.ar      1 <0>        -0.0551
      6 C6          0.0021   -0.0041    0.0020 C.ar      1 <0>        -0.0258
      7 C7         -1.2677   -0.7613    0.0105 C.2       1 <0>         0.0018
      8 C8         -2.5210   -0.2394    0.0202 C.2       1 <0>        -0.0232
      9 N1         -3.3856   -1.2652    0.0250 N.2       1 <0>        -0.4853
     10 C9         -2.7149   -2.3828    0.0186 C.2       1 <0>         0.1757
     11 O1         -1.4036   -2.1055    0.0042 O.3       1 <0>        -0.1999
     12 C10         3.8310   -0.3458   -0.0367 C.2       1 <0>        -0.1912
     13 C11         4.5523    0.8379   -0.0375 C.2       1 <0>         0.3521
     14 N2          3.6912    1.8895   -0.0234 N.pl3     1 <0>        -0.5858
     15 H1          3.9576    2.8222   -0.0214 H         1 <0>         0.4218
     16 O2          5.9012    0.9318   -0.0499 O.3       1 <0>        -0.4430
     17 C12         4.3561   -1.6611   -0.0485 C.2       1 <0>         0.2511
     18 N3          5.6521   -1.8487   -0.0623 N.2       1 <0>        -0.4993
     19 C13         6.1594   -3.1193   -0.0737 C.ar      1 <0>         0.1102
     20 C14         5.6350   -4.0978    0.7745 C.ar      1 <0>        -0.1473
     21 C15         6.1604   -5.3648    0.7448 C.ar      1 <0>        -0.0735
     22 C16         7.2117   -5.7019   -0.1162 C.ar      1 <0>        -0.1057
     23 C17         7.7327   -4.7432   -0.9539 C.ar      1 <0>        -0.0730
     24 C18         7.1988   -3.4542   -0.9333 C.ar      1 <0>        -0.0885
     25 C19         8.8792   -5.1772   -1.8689 C.3       1 <0>        -0.5380
     26 S1          9.4046   -6.7598   -1.0940 S.o2      1 <0>         2.3887
     27 O3          9.5888   -7.7420   -2.1042 O.2       1 <0>        -0.9279
     28 O4         10.4433   -6.5055   -0.1582 O.2       1 <0>        -0.9223
     29 C20         7.8371   -7.0961   -0.1933 C.3       1 <0>        -0.5347
     30 H2         -0.9616    1.9182    0.0261 H         1 <0>         0.1388
     31 H3          1.1338    3.1887    0.0080 H         1 <0>         0.1354
     32 H4          1.2377   -1.7623   -0.0194 H         1 <0>         0.1334
     33 H5         -2.7755    0.8102    0.0235 H         1 <0>         0.1867
     34 H6         -3.1463   -3.3729    0.0203 H         1 <0>         0.2524
     35 H7          6.2851    0.9637   -0.9369 H         1 <0>         0.4067
     36 H8          3.6877   -2.5095   -0.0461 H         1 <0>         0.1083
     37 H9          4.8245   -3.8591    1.4472 H         1 <0>         0.1317
     38 H10         5.7537   -6.1198    1.4013 H         1 <0>         0.1309
     39 H11         7.6039   -2.7019   -1.5938 H         1 <0>         0.1334
     40 H12         8.5249   -5.3404   -2.8867 H         1 <0>         0.1526
     41 H13         9.6887   -4.4474   -1.8520 H         1 <0>         0.1492
     42 H14         8.0373   -7.4890    0.8036 H         1 <0>         0.1479
     43 H15         7.2014   -7.7776   -0.7586 H         1 <0>         0.1514
@<TRIPOS>BOND
     1    1    6 ar
     2    1    2 ar
     3    1   30 1
     4    2    3 ar
     5    2   31 1
     6    3   14 1
     7    3    4 ar
     8    4    5 ar
     9    4   12 1
    10    5    6 ar
    11    5   32 1
    12    6    7 1
    13    7   11 1
    14    7    8 2
    15    8    9 1
    16    8   33 1
    17    9   10 2
    18   10   11 1
    19   10   34 1
    20   12   13 2
    21   12   17 1
    22   13   14 1
    23   13   16 1
    24   14   15 1
    25   16   35 1
    26   17   18 2
    27   17   36 1
    28   18   19 1
    29   19   24 ar
    30   19   20 ar
    31   20   21 ar
    32   20   37 1
    33   21   22 ar
    34   21   38 1
    35   22   29 1
    36   22   23 ar
    37   23   24 ar
    38   23   25 1
    39   24   39 1
    40   25   26 1
    41   25   40 1
    42   25   41 1
    43   26   27 2
    44   26   28 2
    45   26   29 1
    46   29   42 1
    47   29   43 1
@<TRIPOS>MOLECULE
CHEMBL16364
   36    37     0     0     0
SMALL
USER_CHARGES

@<TRIPOS>ATOM
      1 C1         -0.0187    1.5258    0.0104 C.3       1 <0>        -0.1665
      2 C2          0.0021   -0.0041    0.0020 C.3       1 <0>         0.1692
      3 C3          0.7421   -0.5109    1.2415 C.3       1 <0>        -0.1658
      4 C4         -1.4333   -0.5336    0.0129 C.3       1 <0>        -0.1589
      5 N1          0.6878   -0.4765   -1.2033 N.pl3     1 <0>        -0.6754
      6 C5          2.0007   -0.1244   -1.4321 C.ar      1 <0>         0.5001
      7 C6          2.6805   -0.5655   -2.5939 C.ar      1 <0>        -0.1925
      8 C7          2.0625   -1.3705   -3.5572 C.ar      1 <0>        -0.0100
      9 C8          2.7677   -1.7642   -4.6562 C.ar      1 <0>        -0.1855
     10 C9          4.0931   -1.3765   -4.8318 C.ar      1 <0>        -0.0382
     11 C10         4.7236   -0.5927   -3.9118 C.ar      1 <0>        -0.0915
     12 C11         4.0285   -0.1695   -2.7708 C.ar      1 <0>         0.2122
     13 N2          4.6015    0.6027   -1.8354 N.ar      1 <0>        -0.5100
     14 C12         3.9229    0.9815   -0.7787 C.ar      1 <0>         0.3104
     15 N3          2.6604    0.6411   -0.5732 N.ar      1 <0>        -0.5599
     16 C13         4.6099    1.8487    0.2445 C.3       1 <0>         0.5459
     17 F1          5.7842    2.3757   -0.3037 F         1 <0>        -0.1528
     18 F2          3.7585    2.8947    0.6165 F         1 <0>        -0.1585
     19 F3          4.9247    1.0808    1.3707 F         1 <0>        -0.1618
     20 C14         2.1031   -2.6312   -5.6944 C.3       1 <0>         0.5103
     21 F4          1.4961   -1.8207   -6.6596 F         1 <0>        -0.1718
     22 F5          3.0626   -3.4454   -6.3056 F         1 <0>        -0.1712
     23 F6          1.1336   -3.4324   -5.0816 F         1 <0>        -0.1755
     24 H1          1.0039    1.9031    0.0027 H         1 <0>         0.0845
     25 H2         -0.5459    1.8868   -0.8726 H         1 <0>         0.0543
     26 H3         -0.5289    1.8773    0.9072 H         1 <0>         0.0706
     27 H4          0.2319   -0.1594    2.1383 H         1 <0>         0.0708
     28 H5          0.7568   -1.6008    1.2356 H         1 <0>         0.0546
     29 H6          1.7647   -0.1336    1.2338 H         1 <0>         0.0829
     30 H7         -1.9605   -0.1726   -0.8702 H         1 <0>         0.0647
     31 H8         -1.4185   -1.6235    0.0069 H         1 <0>         0.0647
     32 H9         -1.9435   -0.1821    0.9097 H         1 <0>         0.0822
     33 H10         0.2179   -1.0371   -1.8404 H         1 <0>         0.4146
     34 H11         1.0349   -1.6780   -3.4312 H         1 <0>         0.1429
     35 H12         4.6303   -1.7020   -5.7103 H         1 <0>         0.1520
     36 H13         5.7524   -0.3000   -4.0611 H         1 <0>         0.1590
@<TRIPOS>BOND
     1    1    2 1
     2    1   24 1
     3    1   25 1
     4    1   26 1
     5    2    3 1
     6    2    4 1
     7    2    5 1
     8    3   27 1
     9    3   28 1
    10    3   29 1
    11    4   30 1
    12    4   31 1
    13    4   32 1
    14    5    6 1
    15    5   33 1
    16    6   15 ar
    17    6    7 ar
    18    7   12 ar
    19    7    8 ar
    20    8    9 ar
    21    8   34 1
    22    9   10 ar
    23    9   20 1
    24   10   11 ar
    25   10   35 1
    26   11   12 ar
    27   11   36 1
    28   12   13 ar
    29   13   14 ar
    30   14   15 ar
    31   14   16 1
    32   16   17 1
    33   16   18 1
    34   16   19 1
    35   20   21 1
    36   20   22 1
    37   20   23 1
@<TRIPOS>MOLECULE
CHEMBL48796
   44    46     0     0     0
SMALL
USER_CHARGES

@<TRIPOS>ATOM
      1 C1         -0.0187    1.5258    0.0104 C.3       1 <0>        -0.1418
      2 C2          0.0021   -0.0041    0.0020 C.3       1 <0>         0.0162
      3 C3          0.7421   -0.5109    1.2415 C.3       1 <0>        -0.1422
      4 C4         -1.4333   -0.5336    0.0129 C.3       1 <0>        -0.1470
      5 C5          0.7074   -0.4901   -1.2379 C.2       1 <0>        -0.0121
      6 C6          1.9790   -0.2319   -1.5855 C.2       1 <0>        -0.0385
      7 N1          2.2153   -0.8490   -2.7568 N.2       1 <0>        -0.4496
      8 C7          1.1320   -1.4698   -3.1277 C.2       1 <0>         0.1839
      9 O1          0.1830   -1.2702   -2.2034 O.3       1 <0>        -0.1868
     10 C8          0.9740   -2.2836   -4.3862 C.3       1 <0>        -0.0280
     11 S1          1.4238   -4.0087   -4.0512 S.3       1 <0>         0.0410
     12 C9          1.1895   -4.8185   -5.5985 C.2       1 <0>        -0.2259
     13 C10         1.3713   -6.1271   -5.9320 C.2       1 <0>         0.0871
     14 N2          1.1330   -6.5241   -7.1680 N.2       1 <0>        -0.4879
     15 C11         0.7203   -5.6775   -8.0933 C.2       1 <0>         0.3394
     16 S2          0.6397   -4.1522   -7.1643 S.3       1 <0>         0.0260
     17 N3          0.4220   -5.9111   -9.4317 N.am      1 <0>        -0.6152
     18 C12         0.5436   -7.1523   -9.9425 C.2       1 <0>         0.5571
     19 O2          0.9140   -8.0679   -9.2335 O.2       1 <0>        -0.4614
     20 C13         0.2267   -7.4006  -11.3646 C.ar      1 <0>        -0.1360
     21 C14        -0.1933   -6.3504  -12.1829 C.ar      1 <0>        -0.0869
     22 C15        -0.4871   -6.5889  -13.5095 C.ar      1 <0>        -0.1246
     23 C16        -0.3666   -7.8655  -14.0293 C.ar      1 <0>        -0.0867
     24 C17         0.0492   -8.9108  -13.2237 C.ar      1 <0>        -0.1242
     25 C18         0.3516   -8.6850  -11.8968 C.ar      1 <0>        -0.0531
     26 H1          1.0039    1.9031    0.0027 H         1 <0>         0.0641
     27 H2         -0.5459    1.8868   -0.8726 H         1 <0>         0.0608
     28 H3         -0.5289    1.8773    0.9072 H         1 <0>         0.0734
     29 H4          0.2319   -0.1594    2.1383 H         1 <0>         0.0735
     30 H5          0.7568   -1.6008    1.2356 H         1 <0>         0.0618
     31 H6          1.7647   -0.1336    1.2338 H         1 <0>         0.0642
     32 H7         -1.9605   -0.1726   -0.8702 H         1 <0>         0.0609
     33 H8         -1.4185   -1.6235    0.0069 H         1 <0>         0.0621
     34 H9         -1.9435   -0.1821    0.9097 H         1 <0>         0.0691
     35 H10         2.6845    0.3639   -1.0254 H         1 <0>         0.1873
     36 H11        -0.0621   -2.2368   -4.7214 H         1 <0>         0.1199
     37 H12         1.6255   -1.8824   -5.1625 H         1 <0>         0.1323
     38 H13         1.7087   -6.8351   -5.1895 H         1 <0>         0.1768
     39 H14         0.1264   -5.1806   -9.9974 H         1 <0>         0.4267
     40 H15        -0.2884   -5.3536  -11.7782 H         1 <0>         0.1253
     41 H16        -0.8121   -5.7774  -14.1437 H         1 <0>         0.1331
     42 H17        -0.5985   -8.0470  -15.0683 H         1 <0>         0.1314
     43 H18         0.1408   -9.9050  -13.6356 H         1 <0>         0.1346
     44 H19         0.6801   -9.5010  -11.2701 H         1 <0>         0.1399
@<TRIPOS>BOND
     1    1    2 1
     2    1   26 1
     3    1   27 1
     4    1   28 1
     5    2    3 1
     6    2    4 1
     7    2    5 1
     8    3   29 1
     9    3   30 1
    10    3   31 1
    11    4   32 1
    12    4   33 1
    13    4   34 1
    14    5    9 1
    15    5    6 2
    16    6    7 1
    17    6   35 1
    18    7    8 2
    19    8    9 1
    20    8   10 1
    21   10   11 1
    22   10   36 1
    23   10   37 1
    24   11   12 1
    25   12   16 1
    26   12   13 2
    27   13   14 1
    28   13   38 1
    29   14   15 2
    30   15   16 1
    31   15   17 1
    32   17   18 am
    33   17   39 1
    34   18   19 2
    35   18   20 1
    36   20   25 ar
    37   20   21 ar
    38   21   22 ar
    39   21   40 1
    40   22   23 ar
    41   22   41 1
    42   23   24 ar
    43   23   42 1
    44   24   25 ar
    45   24   43 1
    46   25   44 1
@<TRIPOS>MOLECULE
CHEMBL272026
   55    58     0     0     0
SMALL
USER_CHARGES

@<TRIPOS>ATOM
      1 C1         -0.0168    1.3857    0.0097 C.ar      1 <0>        -0.1712
      2 C2          1.1705    2.0906    0.0021 C.ar      1 <0>         0.0178
      3 C3          2.3775    1.4154   -0.0135 C.ar      1 <0>        -0.6976
      4 C4          2.4002    0.0326   -0.0211 C.ar      1 <0>         0.0131
      5 C5          1.2170   -0.6791   -0.0137 C.ar      1 <0>        -0.1575
      6 C6          0.0021   -0.0041    0.0020 C.ar      1 <0>         0.2200
      7 N1         -1.1956   -0.7198    0.0096 N.pl3     1 <0>        -0.4819
      8 N2         -1.1763   -2.0096    0.0025 N.2       1 <0>        -0.1037
      9 C7         -2.3044   -2.6837    0.0096 C.2       1 <0>        -0.0238
     10 C8         -2.4767   -4.1556    0.0094 C.ar      1 <0>        -0.0779
     11 C9         -1.5822   -5.2148    0.0014 C.ar      1 <0>         0.0153
     12 C10        -2.0643   -6.5243    0.0032 C.ar      1 <0>        -0.1658
     13 C11        -3.4440   -6.7565    0.0131 C.ar      1 <0>        -0.0444
     14 C12        -4.3287   -5.7035    0.0205 C.ar      1 <0>        -0.1401
     15 C13        -3.8602   -4.3908    0.0193 C.ar      1 <0>         0.1844
     16 N3         -4.5294   -3.1772    0.0254 N.am      1 <0>        -0.6413
     17 C14        -3.6734   -2.1416    0.0261 C.2       1 <0>         0.5479
     18 O1         -3.9763   -0.9625    0.0355 O.2       1 <0>        -0.5068
     19 C15        -1.1220   -7.6606   -0.0057 C.2       1 <0>         0.5698
     20 O2          0.0765   -7.4563   -0.0146 O.2       1 <0>        -0.5241
     21 N4         -1.5902   -8.9244   -0.0040 N.am      1 <0>        -0.7342
     22 C16        -0.6550  -10.0520   -0.0128 C.3       1 <0>         0.1225
     23 C17        -1.4397  -11.3654   -0.0087 C.3       1 <0>        -0.1548
     24 C18        -0.4630  -12.5431   -0.0180 C.3       1 <0>         0.0947
     25 N5         -1.2144  -13.8007   -0.0140 N.pl3     1 <0>        -0.4086
     26 C19        -1.6277  -14.4965    1.0900 C.2       1 <0>         0.0257
     27 C20        -2.2805  -15.5859    0.6421 C.2       1 <0>         0.0042
     28 N6         -2.2663  -15.5561   -0.6988 N.pl3     1 <0>        -0.4762
     29 C21        -1.6338  -14.4870   -1.0988 C.cat     1 <0>         0.2890
     30 S1          3.8900    2.3193   -0.0243 S.o2      1 <0>         2.7041
     31 O3          4.8717    1.4614   -0.5894 O.2       1 <0>        -0.9613
     32 O4          3.5943    3.5994   -0.5657 O.2       1 <0>        -0.9607
     33 N7          4.3262    2.5625    1.5546 N.pl3     1 <0>        -1.2499
     34 H1         -0.9588    1.9136    0.0260 H         1 <0>         0.1433
     35 H2          1.1567    3.1705    0.0080 H         1 <0>         0.1543
     36 H3          3.3446   -0.4912   -0.0333 H         1 <0>         0.1527
     37 H4          1.2355   -1.7589   -0.0204 H         1 <0>         0.1499
     38 H5         -2.0428   -0.2475    0.0202 H         1 <0>         0.4142
     39 H6         -0.5186   -5.0276   -0.0065 H         1 <0>         0.1497
     40 H7         -3.8171   -7.7700    0.0144 H         1 <0>         0.1337
     41 H8         -5.3916   -5.8946    0.0277 H         1 <0>         0.1414
     42 H9         -5.4951   -3.0867    0.0325 H         1 <0>         0.4259
     43 H10        -2.5464   -9.0873    0.0032 H         1 <0>         0.4016
     44 H11        -0.0344  -10.0023   -0.9075 H         1 <0>         0.0798
     45 H12        -0.0207  -10.0050    0.8724 H         1 <0>         0.0799
     46 H13        -2.0603  -11.4151    0.8860 H         1 <0>         0.0893
     47 H14        -2.0740  -11.4125   -0.8939 H         1 <0>         0.0872
     48 H15         0.1575  -12.4934   -0.9127 H         1 <0>         0.1274
     49 H16         0.1712  -12.4960    0.8672 H         1 <0>         0.1300
     50 H17        -1.4618  -14.2243    2.1219 H         1 <0>         0.2235
     51 H18        -2.7358  -16.3497    1.2551 H         1 <0>         0.2240
     52 H19        -1.4705  -14.2000   -2.1271 H         1 <0>         0.2603
     53 H20         3.7677    2.2208    2.2703 H         1 <0>         0.4167
     54 H21         5.1404    3.0466    1.7638 H         1 <0>         0.4225
     55 H22        -2.6663  -16.2222   -1.2795 H         1 <0>         0.4658
@<TRIPOS>BOND
     1    1    6 ar
     2    1    2 ar
     3    1   34 1
     4    2    3 ar
     5    2   35 1
     6    3    4 ar
     7    3   30 1
     8    4    5 ar
     9    4   36 1
    10    5    6 ar
    11    5   37 1
    12    6    7 1
    13    7    8 1
    14    7   38 1
    15    8    9 2
    16    9   17 1
    17    9   10 1
    18   10   15 ar
    19   10   11 ar
    20   11   12 ar
    21   11   39 1
    22   12   13 ar
    23   12   19 1
    24   13   14 ar
    25   13   40 1
    26   14   15 ar
    27   14   41 1
    28   15   16 1
    29   16   17 am
    30   16   42 1
    31   17   18 2
    32   19   20 2
    33   19   21 am
    34   21   22 1
    35   21   43 1
    36   22   23 1
    37   22   44 1
    38   22   45 1
    39   23   24 1
    40   23   46 1
    41   23   47 1
    42   24   25 1
    43   24   48 1
    44   24   49 1
    45   25   29 1
    46   25   26 1
    47   26   27 2
    48   26   50 1
    49   27   28 1
    50   27   51 1
    51   28   29 2
    52   28   55 1
    53   29   52 1
    54   30   31 2
    55   30   32 2
    56   30   33 1
    57   33   53 1
    58   33   54 1
@<TRIPOS>MOLECULE
CHEMBL272026
   54    57     0     0     0
SMALL
USER_CHARGES

@<TRIPOS>ATOM
      1 C1         -0.0168    1.3857    0.0097 C.ar      1 <0>        -0.1735
      2 C2          1.1705    2.0906    0.0021 C.ar      1 <0>         0.0138
      3 C3          2.3775    1.4154   -0.0135 C.ar      1 <0>        -0.7015
      4 C4          2.4002    0.0326   -0.0211 C.ar      1 <0>         0.0155
      5 C5          1.2170   -0.6791   -0.0137 C.ar      1 <0>        -0.1582
      6 C6          0.0021   -0.0041    0.0020 C.ar      1 <0>         0.2234
      7 N1         -1.1956   -0.7198    0.0096 N.pl3     1 <0>        -0.4857
      8 N2         -1.1763   -2.0096    0.0025 N.2       1 <0>        -0.1084
      9 C7         -2.3044   -2.6837    0.0096 C.2       1 <0>        -0.0155
     10 C8         -2.4767   -4.1556    0.0094 C.ar      1 <0>        -0.0821
     11 C9         -1.5822   -5.2148    0.0014 C.ar      1 <0>         0.0143
     12 C10        -2.0643   -6.5243    0.0032 C.ar      1 <0>        -0.1584
     13 C11        -3.4440   -6.7565    0.0131 C.ar      1 <0>        -0.0428
     14 C12        -4.3287   -5.7035    0.0205 C.ar      1 <0>        -0.1385
     15 C13        -3.8602   -4.3908    0.0193 C.ar      1 <0>         0.1784
     16 N3         -4.5294   -3.1772    0.0254 N.am      1 <0>        -0.6405
     17 C14        -3.6734   -2.1416    0.0261 C.2       1 <0>         0.5485
     18 O1         -3.9763   -0.9625    0.0355 O.2       1 <0>        -0.5118
     19 C15        -1.1220   -7.6606   -0.0057 C.2       1 <0>         0.5653
     20 O2          0.0765   -7.4563   -0.0146 O.2       1 <0>        -0.5299
     21 N4         -1.5902   -8.9244   -0.0040 N.am      1 <0>        -0.7284
     22 C16        -0.6550  -10.0520   -0.0128 C.3       1 <0>         0.1226
     23 C17        -1.4397  -11.3654   -0.0087 C.3       1 <0>        -0.1491
     24 C18        -0.4630  -12.5431   -0.0180 C.3       1 <0>         0.1081
     25 N5         -1.2144  -13.8007   -0.0140 N.pl3     1 <0>        -0.4610
     26 C19        -1.6273  -14.4967    1.0900 C.2       1 <0>        -0.0571
     27 C20        -2.2803  -15.5860    0.6421 C.2       1 <0>        -0.0286
     28 N6         -2.2666  -15.5560   -0.6988 N.2       1 <0>        -0.4948
     29 C21        -1.6342  -14.4868   -1.0988 C.2       1 <0>         0.1816
     30 S1          3.8900    2.3193   -0.0243 S.o2      1 <0>         2.7048
     31 O3          4.8717    1.4614   -0.5894 O.2       1 <0>        -0.9612
     32 O4          3.5943    3.5994   -0.5657 O.2       1 <0>        -0.9602
     33 N7          4.3262    2.5625    1.5546 N.pl3     1 <0>        -1.2482
     34 H1         -0.9588    1.9136    0.0260 H         1 <0>         0.1420
     35 H2          1.1567    3.1705    0.0080 H         1 <0>         0.1524
     36 H3          3.3446   -0.4912   -0.0333 H         1 <0>         0.1517
     37 H4          1.2355   -1.7589   -0.0204 H         1 <0>         0.1505
     38 H5         -2.0428   -0.2475    0.0202 H         1 <0>         0.4132
     39 H6         -0.5186   -5.0276   -0.0065 H         1 <0>         0.1494
     40 H7         -3.8171   -7.7700    0.0144 H         1 <0>         0.1373
     41 H8         -5.3916   -5.8946    0.0277 H         1 <0>         0.1412
     42 H9         -5.4951   -3.0867    0.0325 H         1 <0>         0.4250
     43 H10        -2.5464   -9.0873    0.0032 H         1 <0>         0.4012
     44 H11        -0.0344  -10.0023   -0.9075 H         1 <0>         0.0759
     45 H12        -0.0207  -10.0050    0.8724 H         1 <0>         0.0751
     46 H13        -2.0603  -11.4151    0.8860 H         1 <0>         0.0796
     47 H14        -2.0740  -11.4125   -0.8939 H         1 <0>         0.0804
     48 H15         0.1575  -12.4934   -0.9127 H         1 <0>         0.1000
     49 H16         0.1712  -12.4960    0.8672 H         1 <0>         0.0974
     50 H17        -1.4610  -14.2248    2.1218 H         1 <0>         0.1739
     51 H18        -2.7353  -16.3499    1.2551 H         1 <0>         0.1695
     52 H19        -1.4713  -14.1996   -2.1271 H         1 <0>         0.2040
     53 H20         5.2638    2.6307    1.7937 H         1 <0>         0.4224
     54 H21         3.6442    2.6367    2.2403 H         1 <0>         0.4172
@<TRIPOS>BOND
     1    1    6 ar
     2    1    2 ar
     3    1   34 1
     4    2    3 ar
     5    2   35 1
     6    3    4 ar
     7    3   30 1
     8    4    5 ar
     9    4   36 1
    10    5    6 ar
    11    5   37 1
    12    6    7 1
    13    7    8 1
    14    7   38 1
    15    8    9 2
    16    9   17 1
    17    9   10 1
    18   10   15 ar
    19   10   11 ar
    20   11   12 ar
    21   11   39 1
    22   12   13 ar
    23   12   19 1
    24   13   14 ar
    25   13   40 1
    26   14   15 ar
    27   14   41 1
    28   15   16 1
    29   16   17 am
    30   16   42 1
    31   17   18 2
    32   19   20 2
    33   19   21 am
    34   21   22 1
    35   21   43 1
    36   22   23 1
    37   22   44 1
    38   22   45 1
    39   23   24 1
    40   23   46 1
    41   23   47 1
    42   24   25 1
    43   24   48 1
    44   24   49 1
    45   25   29 1
    46   25   26 1
    47   26   27 2
    48   26   50 1
    49   27   28 1
    50   27   51 1
    51   28   29 2
    52   29   52 1
    53   30   31 2
    54   30   32 2
    55   30   33 1
    56   33   53 1
    57   33   54 1
@<TRIPOS>MOLECULE
CHEMBL272028
   52    55     0     0     0
SMALL
USER_CHARGES

@<TRIPOS>ATOM
      1 C1         -0.0168    1.3857    0.0097 C.ar      1 <0>        -0.1711
      2 C2          1.1705    2.0906    0.0021 C.ar      1 <0>         0.0180
      3 C3          2.3775    1.4154   -0.0135 C.ar      1 <0>        -0.6976
      4 C4          2.4002    0.0326   -0.0211 C.ar      1 <0>         0.0130
      5 C5          1.2170   -0.6791   -0.0137 C.ar      1 <0>        -0.1578
      6 C6          0.0021   -0.0041    0.0020 C.ar      1 <0>         0.2202
      7 N1         -1.1956   -0.7198    0.0096 N.pl3     1 <0>        -0.4820
      8 N2         -1.1763   -2.0096    0.0025 N.2       1 <0>        -0.1043
      9 C7         -2.3044   -2.6837    0.0096 C.2       1 <0>        -0.0235
     10 C8         -2.4767   -4.1556    0.0094 C.ar      1 <0>        -0.0786
     11 C9         -1.5822   -5.2148    0.0014 C.ar      1 <0>         0.0155
     12 C10        -2.0643   -6.5243    0.0032 C.ar      1 <0>        -0.1677
     13 C11        -3.4440   -6.7565    0.0131 C.ar      1 <0>        -0.0432
     14 C12        -4.3287   -5.7035    0.0205 C.ar      1 <0>        -0.1398
     15 C13        -3.8602   -4.3908    0.0193 C.ar      1 <0>         0.1858
     16 N3         -4.5294   -3.1772    0.0254 N.am      1 <0>        -0.6412
     17 C14        -3.6734   -2.1416    0.0261 C.2       1 <0>         0.5478
     18 O1         -3.9763   -0.9625    0.0355 O.2       1 <0>        -0.5063
     19 C15        -1.1220   -7.6606   -0.0057 C.2       1 <0>         0.5718
     20 O2          0.0765   -7.4563   -0.0146 O.2       1 <0>        -0.5260
     21 N4         -1.5902   -8.9244   -0.0040 N.am      1 <0>        -0.7347
     22 C16        -0.6550  -10.0520   -0.0128 C.3       1 <0>         0.1218
     23 C17        -1.4397  -11.3654   -0.0087 C.3       1 <0>        -0.0764
     24 C18        -0.4777  -12.5254   -0.0178 C.2       1 <0>         0.0327
     25 C19         0.0967  -13.0685   -1.1080 C.2       1 <0>         0.0421
     26 N5          0.8941  -14.0904   -0.6680 N.pl3     1 <0>        -0.5090
     27 H1          1.4398  -14.6729   -1.2192 H         1 <0>         0.4691
     28 C20         0.7791  -14.1361    0.6768 C.cat     1 <0>         0.3105
     29 N6         -0.0391  -13.1940    1.0590 N.pl3     1 <0>        -0.4740
     30 S1          3.8900    2.3193   -0.0243 S.o2      1 <0>         2.7042
     31 O3          4.8717    1.4614   -0.5894 O.2       1 <0>        -0.9615
     32 O4          3.5943    3.5994   -0.5657 O.2       1 <0>        -0.9605
     33 N7          4.3262    2.5625    1.5546 N.pl3     1 <0>        -1.2499
     34 H2         -0.9588    1.9136    0.0260 H         1 <0>         0.1434
     35 H3          1.1567    3.1705    0.0080 H         1 <0>         0.1544
     36 H4          3.3446   -0.4912   -0.0333 H         1 <0>         0.1524
     37 H5          1.2355   -1.7589   -0.0204 H         1 <0>         0.1496
     38 H6         -2.0428   -0.2475    0.0202 H         1 <0>         0.4144
     39 H7         -0.5186   -5.0276   -0.0065 H         1 <0>         0.1490
     40 H8         -3.8171   -7.7700    0.0144 H         1 <0>         0.1355
     41 H9         -5.3916   -5.8946    0.0277 H         1 <0>         0.1423
     42 H10        -5.4951   -3.0867    0.0325 H         1 <0>         0.4263
     43 H11        -2.5464   -9.0873    0.0032 H         1 <0>         0.4044
     44 H12        -0.0344  -10.0023   -0.9075 H         1 <0>         0.0807
     45 H13        -0.0207  -10.0050    0.8724 H         1 <0>         0.0735
     46 H14        -2.0603  -11.4151    0.8860 H         1 <0>         0.1048
     47 H15        -2.0740  -11.4125   -0.8939 H         1 <0>         0.1210
     48 H16        -0.0449  -12.7579   -2.1326 H         1 <0>         0.2284
     49 H17         1.2838  -14.8341    1.3283 H         1 <0>         0.2677
     50 H18         3.7677    2.2208    2.2703 H         1 <0>         0.4166
     51 H19         5.1404    3.0466    1.7638 H         1 <0>         0.4225
     52 H20        -0.2916  -13.0079    1.9769 H         1 <0>         0.4657
@<TRIPOS>BOND
     1    1    6 ar
     2    1    2 ar
     3    1   34 1
     4    2    3 ar
     5    2   35 1
     6    3    4 ar
     7    3   30 1
     8    4    5 ar
     9    4   36 1
    10    5    6 ar
    11    5   37 1
    12    6    7 1
    13    7    8 1
    14    7   38 1
    15    8    9 2
    16    9   17 1
    17    9   10 1
    18   10   15 ar
    19   10   11 ar
    20   11   12 ar
    21   11   39 1
    22   12   13 ar
    23   12   19 1
    24   13   14 ar
    25   13   40 1
    26   14   15 ar
    27   14   41 1
    28   15   16 1
    29   16   17 am
    30   16   42 1
    31   17   18 2
    32   19   20 2
    33   19   21 am
    34   21   22 1
    35   21   43 1
    36   22   23 1
    37   22   44 1
    38   22   45 1
    39   23   24 1
    40   23   46 1
    41   23   47 1
    42   24   29 1
    43   24   25 2
    44   25   26 1
    45   25   48 1
    46   26   27 1
    47   26   28 1
    48   28   29 2
    49   28   49 1
    50   29   52 1
    51   30   31 2
    52   30   32 2
    53   30   33 1
    54   33   50 1
    55   33   51 1
@<TRIPOS>MOLECULE
CHEMBL272028
   51    54     0     0     0
SMALL
USER_CHARGES

@<TRIPOS>ATOM
      1 C1         -0.0168    1.3857    0.0097 C.ar      1 <0>        -0.1740
      2 C2          1.1705    2.0906    0.0021 C.ar      1 <0>         0.0172
      3 C3          2.3775    1.4154   -0.0135 C.ar      1 <0>        -0.7003
      4 C4          2.4002    0.0326   -0.0211 C.ar      1 <0>         0.0140
      5 C5          1.2170   -0.6791   -0.0137 C.ar      1 <0>        -0.1583
      6 C6          0.0021   -0.0041    0.0020 C.ar      1 <0>         0.2247
      7 N1         -1.1956   -0.7198    0.0096 N.pl3     1 <0>        -0.4860
      8 N2         -1.1763   -2.0096    0.0025 N.2       1 <0>        -0.1088
      9 C7         -2.3044   -2.6837    0.0096 C.2       1 <0>        -0.0147
     10 C8         -2.4767   -4.1556    0.0094 C.ar      1 <0>        -0.0823
     11 C9         -1.5822   -5.2148    0.0014 C.ar      1 <0>         0.0139
     12 C10        -2.0643   -6.5243    0.0032 C.ar      1 <0>        -0.1571
     13 C11        -3.4440   -6.7565    0.0131 C.ar      1 <0>        -0.0430
     14 C12        -4.3287   -5.7035    0.0205 C.ar      1 <0>        -0.1386
     15 C13        -3.8602   -4.3908    0.0193 C.ar      1 <0>         0.1774
     16 N3         -4.5294   -3.1772    0.0254 N.am      1 <0>        -0.6405
     17 C14        -3.6734   -2.1416    0.0261 C.2       1 <0>         0.5485
     18 O1         -3.9763   -0.9625    0.0355 O.2       1 <0>        -0.5121
     19 C15        -1.1220   -7.6606   -0.0057 C.2       1 <0>         0.5641
     20 O2          0.0765   -7.4563   -0.0146 O.2       1 <0>        -0.5292
     21 N4         -1.5902   -8.9244   -0.0040 N.am      1 <0>        -0.7288
     22 C16        -0.6550  -10.0520   -0.0128 C.3       1 <0>         0.1238
     23 C17        -1.4397  -11.3654   -0.0087 C.3       1 <0>        -0.0534
     24 C18        -0.4777  -12.5254   -0.0178 C.2       1 <0>        -0.0291
     25 C19         0.1152  -13.0850    1.0540 C.2       1 <0>        -0.0130
     26 N5          0.8944  -14.0872    0.6211 N.2       1 <0>        -0.4935
     27 H1         -0.2966  -13.0507   -2.0381 H         1 <0>         0.4199
     28 C20         0.8069  -14.1699   -0.6784 C.2       1 <0>         0.1902
     29 N6         -0.0433  -13.2165   -1.1166 N.pl3     1 <0>        -0.5666
     30 S1          3.8900    2.3193   -0.0243 S.o2      1 <0>         2.7046
     31 O3          4.8717    1.4614   -0.5894 O.2       1 <0>        -0.9617
     32 O4          3.5943    3.5994   -0.5657 O.2       1 <0>        -0.9630
     33 N7          4.3262    2.5625    1.5546 N.pl3     1 <0>        -1.2502
     34 H2         -0.9588    1.9136    0.0260 H         1 <0>         0.1423
     35 H3          1.1567    3.1705    0.0080 H         1 <0>         0.1528
     36 H4          3.3446   -0.4912   -0.0333 H         1 <0>         0.1524
     37 H5          1.2355   -1.7589   -0.0204 H         1 <0>         0.1510
     38 H6         -2.0428   -0.2475    0.0202 H         1 <0>         0.4132
     39 H7         -0.5186   -5.0276   -0.0065 H         1 <0>         0.1492
     40 H8         -3.8171   -7.7700    0.0144 H         1 <0>         0.1380
     41 H9         -5.3916   -5.8946    0.0277 H         1 <0>         0.1410
     42 H10        -5.4951   -3.0867    0.0325 H         1 <0>         0.4248
     43 H11        -2.5464   -9.0873    0.0032 H         1 <0>         0.4004
     44 H12        -0.0344  -10.0023   -0.9075 H         1 <0>         0.0693
     45 H13        -0.0207  -10.0050    0.8724 H         1 <0>         0.0781
     46 H14        -2.0603  -11.4151    0.8860 H         1 <0>         0.0965
     47 H15        -2.0740  -11.4125   -0.8939 H         1 <0>         0.0783
     48 H16        -0.0141  -12.7803    2.0820 H         1 <0>         0.1704
     49 H17         1.3257  -14.8846   -1.3000 H         1 <0>         0.2097
     50 H18         3.7677    2.2208    2.2703 H         1 <0>         0.4169
     51 H19         5.1404    3.0466    1.7638 H         1 <0>         0.4217
@<TRIPOS>BOND
     1    1    6 ar
     2    1    2 ar
     3    1   34 1
     4    2    3 ar
     5    2   35 1
     6    3    4 ar
     7    3   30 1
     8    4    5 ar
     9    4   36 1
    10    5    6 ar
    11    5   37 1
    12    6    7 1
    13    7    8 1
    14    7   38 1
    15    8    9 2
    16    9   17 1
    17    9   10 1
    18   10   15 ar
    19   10   11 ar
    20   11   12 ar
    21   11   39 1
    22   12   13 ar
    23   12   19 1
    24   13   14 ar
    25   13   40 1
    26   14   15 ar
    27   14   41 1
    28   15   16 1
    29   16   17 am
    30   16   42 1
    31   17   18 2
    32   19   20 2
    33   19   21 am
    34   21   22 1
    35   21   43 1
    36   22   23 1
    37   22   44 1
    38   22   45 1
    39   23   46 1
    40   23   47 1
    41   23   24 1
    42   24   25 2
    43   24   29 1
    44   25   26 1
    45   25   48 1
    46   26   28 2
    47   27   29 1
    48   28   49 1
    49   28   29 1
    50   30   31 2
    51   30   32 2
    52   30   33 1
    53   33   50 1
    54   33   51 1
@<TRIPOS>MOLECULE
CHEMBL272028
   51    54     0     0     0
SMALL
USER_CHARGES

@<TRIPOS>ATOM
      1 C1         -0.0168    1.3857    0.0097 C.ar      1 <0>        -0.1746
      2 C2          1.1705    2.0906    0.0021 C.ar      1 <0>         0.0171
      3 C3          2.3775    1.4154   -0.0135 C.ar      1 <0>        -0.7009
      4 C4          2.4002    0.0326   -0.0211 C.ar      1 <0>         0.0141
      5 C5          1.2170   -0.6791   -0.0137 C.ar      1 <0>        -0.1584
      6 C6          0.0021   -0.0041    0.0020 C.ar      1 <0>         0.2257
      7 N1         -1.1956   -0.7198    0.0096 N.pl3     1 <0>        -0.4868
      8 N2         -1.1763   -2.0096    0.0025 N.2       1 <0>        -0.1100
      9 C7         -2.3044   -2.6837    0.0096 C.2       1 <0>        -0.0128
     10 C8         -2.4767   -4.1556    0.0094 C.ar      1 <0>        -0.0831
     11 C9         -1.5822   -5.2148    0.0014 C.ar      1 <0>         0.0133
     12 C10        -2.0643   -6.5243    0.0032 C.ar      1 <0>        -0.1546
     13 C11        -3.4440   -6.7565    0.0131 C.ar      1 <0>        -0.0430
     14 C12        -4.3287   -5.7035    0.0205 C.ar      1 <0>        -0.1385
     15 C13        -3.8602   -4.3908    0.0193 C.ar      1 <0>         0.1754
     16 N3         -4.5294   -3.1772    0.0254 N.am      1 <0>        -0.6404
     17 C14        -3.6734   -2.1416    0.0261 C.2       1 <0>         0.5484
     18 O1         -3.9763   -0.9625    0.0355 O.2       1 <0>        -0.5132
     19 C15        -1.1220   -7.6606   -0.0057 C.2       1 <0>         0.5623
     20 O2          0.0765   -7.4563   -0.0146 O.2       1 <0>        -0.5306
     21 N4         -1.5902   -8.9244   -0.0040 N.am      1 <0>        -0.7276
     22 C16        -0.6550  -10.0520   -0.0128 C.3       1 <0>         0.1276
     23 C17        -1.4397  -11.3654   -0.0087 C.3       1 <0>        -0.0435
     24 C18        -0.4777  -12.5254   -0.0178 C.2       1 <0>         0.0009
     25 C19        -0.4502  -13.5376    0.8700 C.2       1 <0>        -0.0486
     26 N5          0.5717  -14.3669    0.4935 N.pl3     1 <0>        -0.5703
     27 H1          0.8419  -15.1858    0.9378 H         1 <0>         0.4221
     28 C20         1.1334  -13.8322   -0.6121 C.2       1 <0>         0.1892
     29 N6          0.4974  -12.7336   -0.9149 N.2       1 <0>        -0.4869
     30 S1          3.8900    2.3193   -0.0243 S.o2      1 <0>         2.7046
     31 O3          4.8717    1.4614   -0.5894 O.2       1 <0>        -0.9617
     32 O4          3.5943    3.5994   -0.5657 O.2       1 <0>        -0.9633
     33 N7          4.3262    2.5625    1.5546 N.pl3     1 <0>        -1.2503
     34 H2         -0.9588    1.9136    0.0260 H         1 <0>         0.1421
     35 H3          1.1567    3.1705    0.0080 H         1 <0>         0.1525
     36 H4          3.3446   -0.4912   -0.0333 H         1 <0>         0.1523
     37 H5          1.2355   -1.7589   -0.0204 H         1 <0>         0.1513
     38 H6         -2.0428   -0.2475    0.0202 H         1 <0>         0.4130
     39 H7         -0.5186   -5.0276   -0.0065 H         1 <0>         0.1491
     40 H8         -3.8171   -7.7700    0.0144 H         1 <0>         0.1386
     41 H9         -5.3916   -5.8946    0.0277 H         1 <0>         0.1406
     42 H10        -5.4951   -3.0867    0.0325 H         1 <0>         0.4245
     43 H11        -2.5464   -9.0873    0.0032 H         1 <0>         0.3988
     44 H12        -0.0344  -10.0023   -0.9075 H         1 <0>         0.0797
     45 H13        -0.0207  -10.0050    0.8724 H         1 <0>         0.0685
     46 H14        -2.0603  -11.4151    0.8860 H         1 <0>         0.0812
     47 H15        -2.0740  -11.4125   -0.8939 H         1 <0>         0.0820
     48 H16        -1.1077  -13.6696    1.7165 H         1 <0>         0.1769
     49 H17         1.9680  -14.2472   -1.1576 H         1 <0>         0.2093
     50 H18         3.7677    2.2208    2.2703 H         1 <0>         0.4169
     51 H19         5.1404    3.0466    1.7638 H         1 <0>         0.4215
@<TRIPOS>BOND
     1    1    6 ar
     2    1    2 ar
     3    1   34 1
     4    2    3 ar
     5    2   35 1
     6    3    4 ar
     7    3   30 1
     8    4    5 ar
     9    4   36 1
    10    5    6 ar
    11    5   37 1
    12    6    7 1
    13    7    8 1
    14    7   38 1
    15    8    9 2
    16    9   17 1
    17    9   10 1
    18   10   15 ar
    19   10   11 ar
    20   11   12 ar
    21   11   39 1
    22   12   13 ar
    23   12   19 1
    24   13   14 ar
    25   13   40 1
    26   14   15 ar
    27   14   41 1
    28   15   16 1
    29   16   17 am
    30   16   42 1
    31   17   18 2
    32   19   20 2
    33   19   21 am
    34   21   22 1
    35   21   43 1
    36   22   23 1
    37   22   44 1
    38   22   45 1
    39   23   24 1
    40   23   46 1
    41   23   47 1
    42   24   29 1
    43   24   25 2
    44   25   26 1
    45   25   48 1
    46   26   27 1
    47   26   28 1
    48   28   29 2
    49   28   49 1
    50   30   31 2
    51   30   32 2
    52   30   33 1
    53   33   50 1
    54   33   51 1
@<TRIPOS>MOLECULE
CHEMBL126997
   46    48     0     0     0
SMALL
USER_CHARGES

@<TRIPOS>ATOM
      1 C1          5.0503    4.7673   -5.2908 C.3       1 <0>        -0.1418
      2 C2          5.7727    3.4274   -5.4446 C.3       1 <0>         0.0162
      3 C3          7.2743    3.6732   -5.6055 C.3       1 <0>        -0.1422
      4 C4          5.5266    2.5697   -4.2017 C.3       1 <0>        -0.1469
      5 C5          5.2478    2.7104   -6.6617 C.2       1 <0>        -0.0123
      6 C6          5.2921    3.1527   -7.9293 C.2       1 <0>        -0.0384
      7 N1          4.7195    2.2178   -8.7081 N.2       1 <0>        -0.4496
      8 C7          4.3317    1.2279   -7.9556 C.2       1 <0>         0.1840
      9 O1          4.6510    1.5025   -6.6839 O.3       1 <0>        -0.1868
     10 C8          3.6427   -0.0230   -8.4371 C.3       1 <0>        -0.0281
     11 S1          4.8859   -1.2809   -8.8406 S.3       1 <0>         0.0409
     12 C9          3.9348   -2.6625   -9.3803 C.2       1 <0>        -0.2273
     13 C10         4.3465   -3.8905   -9.8016 C.2       1 <0>         0.0886
     14 N2          3.4504   -4.7897  -10.1653 N.2       1 <0>        -0.4864
     15 C11         2.1580   -4.5237  -10.1294 C.2       1 <0>         0.3545
     16 S2          2.1611   -2.8435   -9.5190 S.3       1 <0>         0.0334
     17 N3          1.0802   -5.3365  -10.4705 N.am      1 <0>        -0.6211
     18 C12         1.2957   -6.5922  -10.9102 C.2       1 <0>         0.7064
     19 O2          2.4314   -7.0152  -11.0092 O.2       1 <0>        -0.5064
     20 N4          0.2524   -7.3789  -11.2404 N.am      1 <0>        -0.6848
     21 C13         0.4782   -8.6451  -11.7984 C.ar      1 <0>         0.0751
     22 C14         0.5917   -8.7891  -13.1760 C.ar      1 <0>         0.1422
     23 C15         0.8145  -10.0402  -13.7229 C.ar      1 <0>        -0.1591
     24 C16         0.9242  -11.1464  -12.9007 C.ar      1 <0>        -0.0483
     25 C17         0.8119  -11.0072  -11.5297 C.ar      1 <0>        -0.1593
     26 C18         0.5948   -9.7585  -10.9750 C.ar      1 <0>         0.1449
     27 F1          0.4908   -9.6226   -9.6349 F         1 <0>        -0.1216
     28 F2          0.4841   -7.7088  -13.9801 F         1 <0>        -0.1222
     29 H1          5.2256    5.3783   -6.1762 H         1 <0>         0.0641
     30 H2          3.9805    4.5922   -5.1761 H         1 <0>         0.0608
     31 H3          5.4299    5.2858   -4.4104 H         1 <0>         0.0734
     32 H4          7.6540    4.1917   -4.7251 H         1 <0>         0.0734
     33 H5          7.7890    2.7186   -5.7150 H         1 <0>         0.0618
     34 H6          7.4496    4.2842   -6.4909 H         1 <0>         0.0642
     35 H7          4.4569    2.3946   -4.0871 H         1 <0>         0.0609
     36 H8          6.0414    1.6151   -4.3113 H         1 <0>         0.0622
     37 H9          5.9063    3.0882   -3.3214 H         1 <0>         0.0690
     38 H10         5.7119    4.0902   -8.2629 H         1 <0>         0.1872
     39 H11         2.9852   -0.4001   -7.6537 H         1 <0>         0.1199
     40 H12         3.0549    0.2052   -9.3262 H         1 <0>         0.1323
     41 H13         5.3996   -4.1273   -9.8384 H         1 <0>         0.1767
     42 H14         0.1742   -4.9991  -10.3915 H         1 <0>         0.4263
     43 H15        -0.6548   -7.0691  -11.0919 H         1 <0>         0.4124
     44 H16         0.9024  -10.1529  -14.7934 H         1 <0>         0.1505
     45 H17         1.0978  -12.1219  -13.3306 H         1 <0>         0.1510
     46 H18         0.8982  -11.8736  -10.8907 H         1 <0>         0.1505
@<TRIPOS>BOND
     1    1    2 1
     2    1   29 1
     3    1   30 1
     4    1   31 1
     5    2    3 1
     6    2    4 1
     7    2    5 1
     8    3   32 1
     9    3   33 1
    10    3   34 1
    11    4   35 1
    12    4   36 1
    13    4   37 1
    14    5    9 1
    15    5    6 2
    16    6    7 1
    17    6   38 1
    18    7    8 2
    19    8    9 1
    20    8   10 1
    21   10   11 1
    22   10   39 1
    23   10   40 1
    24   11   12 1
    25   12   16 1
    26   12   13 2
    27   13   14 1
    28   13   41 1
    29   14   15 2
    30   15   16 1
    31   15   17 1
    32   17   18 am
    33   17   42 1
    34   18   19 2
    35   18   20 am
    36   20   21 1
    37   20   43 1
    38   21   26 ar
    39   21   22 ar
    40   22   23 ar
    41   22   28 1
    42   23   24 ar
    43   23   44 1
    44   24   25 ar
    45   24   45 1
    46   25   26 ar
    47   25   46 1
    48   26   27 1
@<TRIPOS>MOLECULE
CHEMBL336906
   37    40     0     0     0
SMALL
USER_CHARGES

@<TRIPOS>ATOM
      1 C1         -0.6236   -2.0378    2.4476 C.ar      1 <0>        -0.1357
      2 C2          0.0388   -1.8785    3.6468 C.ar      1 <0>        -0.0087
      3 C3          0.4703   -0.6243    4.0413 C.ar      1 <0>        -0.6789
      4 C4          0.2406    0.4784    3.2375 C.ar      1 <0>        -0.0177
      5 C5         -0.4209    0.3343    2.0359 C.ar      1 <0>        -0.1168
      6 C6         -0.8587   -0.9291    1.6306 C.ar      1 <0>         0.0615
      7 N1         -1.5146   -1.0797    0.4398 N.2       1 <0>        -0.1605
      8 N2         -1.0217   -1.8427   -0.4761 N.2       1 <0>        -0.0450
      9 C7          0.1134   -2.5341   -0.2398 C.2       1 <0>        -0.1205
     10 C8          0.3040   -3.9877   -0.3664 C.ar      1 <0>         0.0197
     11 C9          1.6342   -4.2412   -0.0203 C.ar      1 <0>         0.0659
     12 C10         2.1184   -5.5509   -0.0457 C.ar      1 <0>        -0.0506
     13 C11         1.3087   -6.5875   -0.4044 C.ar      1 <0>        -0.1077
     14 C12        -0.0233   -6.3626   -0.7546 C.ar      1 <0>         0.1319
     15 C13        -0.5395   -5.0555   -0.7386 C.ar      1 <0>        -0.1309
     16 C14        -1.8935   -5.1417   -1.1337 C.2       1 <0>         0.1437
     17 N3         -2.1809   -6.3905   -1.3706 N.2       1 <0>        -0.2344
     18 N4         -1.0493   -7.1844   -1.1480 N.pl3     1 <0>        -0.4763
     19 H1         -0.9994   -8.1474   -1.2533 H         1 <0>         0.4512
     20 Cl1        -2.9922   -3.8055   -1.2786 Cl        1 <0>         0.0421
     21 N5          2.2280   -3.0310    0.2987 N.pl3     1 <0>        -0.5619
     22 H2          3.1518   -2.9234    0.5740 H         1 <0>         0.4245
     23 C15         1.3352   -2.0152    0.1652 C.2       1 <0>         0.2998
     24 O1          1.5949   -0.7076    0.3941 O.3       1 <0>        -0.4534
     25 S1          1.3158   -0.4304    5.5750 S.o2      1 <0>         2.7008
     26 O2          1.1346    0.9224    5.9705 O.2       1 <0>        -0.9556
     27 O3          0.9248   -1.5228    6.3953 O.2       1 <0>        -0.9570
     28 N6          2.9323   -0.6219    5.2706 N.pl3     1 <0>        -1.2496
     29 H3         -0.9559   -3.0180    2.1388 H         1 <0>         0.1399
     30 H4          0.2209   -2.7346    4.2795 H         1 <0>         0.1514
     31 H5          0.5799    1.4544    3.5519 H         1 <0>         0.1578
     32 H6         -0.6002    1.1959    1.4099 H         1 <0>         0.1531
     33 H7          3.1466   -5.7449    0.2217 H         1 <0>         0.1426
     34 H8          1.7024   -7.5931   -0.4181 H         1 <0>         0.1447
     35 H9          1.5322   -0.4511    1.3243 H         1 <0>         0.3929
     36 H10         3.2375   -0.8049    4.3683 H         1 <0>         0.4140
     37 H11         3.5739   -0.5512    5.9947 H         1 <0>         0.4237
@<TRIPOS>BOND
     1    1    6 ar
     2    1    2 ar
     3    1   29 1
     4    2    3 ar
     5    2   30 1
     6    3    4 ar
     7    3   25 1
     8    4    5 ar
     9    4   31 1
    10    5    6 ar
    11    5   32 1
    12    6    7 1
    13    7    8 2
    14    8    9 1
    15    9   23 2
    16    9   10 1
    17   10   15 ar
    18   10   11 ar
    19   11   12 ar
    20   11   21 1
    21   12   13 ar
    22   12   33 1
    23   13   14 ar
    24   13   34 1
    25   14   18 1
    26   14   15 ar
    27   15   16 1
    28   16   17 2
    29   16   20 1
    30   17   18 1
    31   18   19 1
    32   21   22 1
    33   21   23 1
    34   23   24 1
    35   24   35 1
    36   25   26 2
    37   25   27 2
    38   25   28 1
    39   28   36 1
    40   28   37 1
@<TRIPOS>MOLECULE
CHEMBL336906
   37    40     0     0     0
SMALL
USER_CHARGES

@<TRIPOS>ATOM
      1 C1         -0.4181    0.3367    2.0283 C.ar      1 <0>        -0.1169
      2 C2          0.2451    0.4860    3.2284 C.ar      1 <0>        -0.0175
      3 C3          0.4750   -0.6132    4.0371 C.ar      1 <0>        -0.6798
      4 C4          0.0416   -1.8688    3.6491 C.ar      1 <0>        -0.0083
      5 C5         -0.6229   -2.0331    2.4517 C.ar      1 <0>        -0.1351
      6 C6         -0.8585   -0.9280    1.6301 C.ar      1 <0>         0.0620
      7 N1         -1.5173   -1.0834    0.4415 N.2       1 <0>        -0.1642
      8 N2         -1.0218   -1.8428   -0.4761 N.2       1 <0>        -0.0456
      9 C7          0.1139   -2.5346   -0.2397 C.2       1 <0>        -0.1168
     10 C8          0.3050   -3.9850   -0.3653 C.ar      1 <0>         0.0130
     11 C9          1.6297   -4.2432   -0.0216 C.ar      1 <0>         0.0645
     12 C10         2.1249   -5.5567   -0.0435 C.ar      1 <0>        -0.0545
     13 C11         1.3626   -6.6173   -0.3912 C.ar      1 <0>        -0.0704
     14 C12         0.0071   -6.4522   -0.7557 C.ar      1 <0>         0.1130
     15 C13        -0.5639   -5.0962   -0.7490 C.ar      1 <0>        -0.1483
     16 C14        -1.8797   -5.2222   -1.1369 C.2       1 <0>         0.1463
     17 N3         -2.1203   -6.5236   -1.3656 N.pl3     1 <0>        -0.4276
     18 N4         -0.9593   -7.2695   -1.1316 N.2       1 <0>        -0.2586
     19 H1         -2.9710   -6.8914   -1.6517 H         1 <0>         0.4496
     20 Cl1        -3.0247   -3.9277   -1.3004 Cl        1 <0>         0.0326
     21 N5          2.2261   -3.0336    0.2975 N.pl3     1 <0>        -0.5478
     22 H2          3.1503   -2.9283    0.5727 H         1 <0>         0.4252
     23 C15         1.3373   -2.0160    0.1652 C.2       1 <0>         0.2838
     24 O1          1.5996   -0.7086    0.3943 O.3       1 <0>        -0.4543
     25 S1          1.3241   -0.4131    5.5680 S.o2      1 <0>         2.7022
     26 O2          1.8945   -1.6756    5.8841 O.2       1 <0>        -0.9598
     27 O3          2.1060    0.7674    5.4474 O.2       1 <0>        -0.9586
     28 N6          0.1805   -0.1071    6.7259 N.pl3     1 <0>        -1.2483
     29 H3         -0.6004    1.1961    1.4001 H         1 <0>         0.1524
     30 H4          0.5862    1.4630    3.5376 H         1 <0>         0.1574
     31 H5          0.2245   -2.7222    4.2852 H         1 <0>         0.1514
     32 H6         -0.9599   -3.0138    2.1498 H         1 <0>         0.1397
     33 H7          3.1563   -5.7264    0.2279 H         1 <0>         0.1387
     34 H8          1.7962   -7.6064   -0.3909 H         1 <0>         0.1468
     35 H9          1.5376   -0.4522    1.3246 H         1 <0>         0.3925
     36 H10        -0.7578   -0.0693    6.4828 H         1 <0>         0.4182
     37 H11         0.4488    0.0344    7.6472 H         1 <0>         0.4232
@<TRIPOS>BOND
     1    1    6 ar
     2    1    2 ar
     3    1   29 1
     4    2    3 ar
     5    2   30 1
     6    3    4 ar
     7    3   25 1
     8    4    5 ar
     9    4   31 1
    10    5    6 ar
    11    5   32 1
    12    6    7 1
    13    7    8 2
    14    8    9 1
    15    9   23 2
    16    9   10 1
    17   10   15 ar
    18   10   11 ar
    19   11   12 ar
    20   11   21 1
    21   12   13 ar
    22   12   33 1
    23   13   14 ar
    24   13   34 1
    25   14   15 ar
    26   14   18 2
    27   15   16 2
    28   16   20 1
    29   16   17 1
    30   17   19 1
    31   17   18 1
    32   21   22 1
    33   21   23 1
    34   23   24 1
    35   24   35 1
    36   25   26 2
    37   25   27 2
    38   25   28 1
    39   28   36 1
    40   28   37 1
@<TRIPOS>MOLECULE
CHEMBL336906
   37    40     0     0     0
SMALL
USER_CHARGES

@<TRIPOS>ATOM
      1 C1         -0.0169    1.3929    0.0097 C.ar      1 <0>        -0.0994
      2 C2          1.1700    2.0954    0.0021 C.ar      1 <0>        -0.0140
      3 C3          2.3776    1.4198   -0.0130 C.ar      1 <0>        -0.6745
      4 C4          2.4041    0.0363   -0.0212 C.ar      1 <0>        -0.0144
      5 C5          1.2251   -0.6794   -0.0142 C.ar      1 <0>        -0.1463
      6 C6          0.0021   -0.0041    0.0020 C.ar      1 <0>         0.1380
      7 N1         -1.1711   -0.7072    0.0099 N.2       1 <0>        -0.2759
      8 N2         -1.1501   -1.9970    0.0028 N.2       1 <0>        -0.1282
      9 C7         -2.3079   -2.6910    0.0105 C.2       1 <0>        -0.0477
     10 C8         -2.4597   -4.1546    0.0101 C.ar      1 <0>         0.0303
     11 C9         -3.8344   -4.4071    0.0199 C.ar      1 <0>         0.0559
     12 C10        -4.2959   -5.7253    0.0219 C.ar      1 <0>        -0.0467
     13 C11        -3.4212   -6.7710    0.0144 C.ar      1 <0>        -0.1125
     14 C12        -2.0438   -6.5473    0.0046 C.ar      1 <0>         0.1338
     15 C13        -1.5489   -5.2319    0.0023 C.ar      1 <0>        -0.1292
     16 C14        -0.1387   -5.3216   -0.0081 C.2       1 <0>         0.1508
     17 N3          0.1999   -6.5800   -0.0119 N.2       1 <0>        -0.2362
     18 N4         -0.9510   -7.3772   -0.0043 N.pl3     1 <0>        -0.4777
     19 H1         -0.9723   -8.3470   -0.0055 H         1 <0>         0.4511
     20 Cl1         0.9606   -3.9781   -0.0156 Cl        1 <0>         0.0332
     21 N5         -4.4902   -3.1870    0.0260 N.pl3     1 <0>        -0.5605
     22 H2         -5.4538   -3.0766    0.0335 H         1 <0>         0.4251
     23 C15        -3.5927   -2.1665    0.0266 C.2       1 <0>         0.3465
     24 O1         -3.9023   -0.8498    0.0373 O.3       1 <0>        -0.4409
     25 S1          3.8889    2.3256   -0.0226 S.o2      1 <0>         2.7018
     26 O2          4.8722    1.4692   -0.5874 O.2       1 <0>        -0.9622
     27 O3          3.5919    3.6055   -0.5637 O.2       1 <0>        -0.9621
     28 N6          4.3240    2.5689    1.5566 N.pl3     1 <0>        -1.2499
     29 H3         -0.9586    1.9215    0.0260 H         1 <0>         0.1456
     30 H4          1.1569    3.1753    0.0077 H         1 <0>         0.1510
     31 H5          3.3502   -0.4844   -0.0333 H         1 <0>         0.1446
     32 H6          1.2472   -1.7591   -0.0213 H         1 <0>         0.1336
     33 H7         -5.3584   -5.9185    0.0299 H         1 <0>         0.1429
     34 H8         -3.7982   -7.7831    0.0165 H         1 <0>         0.1445
     35 H9         -4.0013   -0.4619   -0.8429 H         1 <0>         0.4107
     36 H10         3.7655    2.2262    2.2719 H         1 <0>         0.4172
     37 H11         5.1374    3.0540    1.7664 H         1 <0>         0.4214
@<TRIPOS>BOND
     1    1    6 ar
     2    1    2 ar
     3    1   29 1
     4    2    3 ar
     5    2   30 1
     6    3    4 ar
     7    3   25 1
     8    4    5 ar
     9    4   31 1
    10    5    6 ar
    11    5   32 1
    12    6    7 1
    13    7    8 2
    14    8    9 1
    15    9   23 2
    16    9   10 1
    17   10   15 ar
    18   10   11 ar
    19   11   12 ar
    20   11   21 1
    21   12   13 ar
    22   12   33 1
    23   13   14 ar
    24   13   34 1
    25   14   18 1
    26   14   15 ar
    27   15   16 1
    28   16   17 2
    29   16   20 1
    30   17   18 1
    31   18   19 1
    32   21   22 1
    33   21   23 1
    34   23   24 1
    35   24   35 1
    36   25   26 2
    37   25   27 2
    38   25   28 1
    39   28   36 1
    40   28   37 1
@<TRIPOS>MOLECULE
CHEMBL336906
   37    40     0     0     0
SMALL
USER_CHARGES

@<TRIPOS>ATOM
      1 C1         -0.0169    1.3929    0.0097 C.ar      1 <0>        -0.0988
      2 C2          1.1700    2.0954    0.0021 C.ar      1 <0>        -0.0137
      3 C3          2.3776    1.4198   -0.0135 C.ar      1 <0>        -0.6745
      4 C4          2.4041    0.0362   -0.0212 C.ar      1 <0>        -0.0153
      5 C5          1.2251   -0.6794   -0.0138 C.ar      1 <0>        -0.1477
      6 C6          0.0021   -0.0041    0.0020 C.ar      1 <0>         0.1376
      7 N1         -1.1711   -0.7073    0.0099 N.2       1 <0>        -0.2738
      8 N2         -1.1501   -1.9971    0.0028 N.2       1 <0>        -0.1304
      9 C7         -2.3086   -2.6914    0.0105 C.2       1 <0>        -0.0410
     10 C8         -2.4610   -4.1519    0.0101 C.ar      1 <0>         0.0255
     11 C9         -3.8298   -4.4091    0.0199 C.ar      1 <0>         0.0536
     12 C10        -4.3028   -5.7309    0.0216 C.ar      1 <0>        -0.0527
     13 C11        -3.4767   -6.8007    0.0145 C.ar      1 <0>        -0.0734
     14 C12        -2.0729   -6.6373    0.0048 C.ar      1 <0>         0.1134
     15 C13        -1.5227   -5.2728    0.0017 C.ar      1 <0>        -0.1470
     16 C14        -0.1513   -5.4023   -0.0094 C.2       1 <0>         0.1538
     17 N3          0.1399   -6.7134   -0.0137 N.pl3     1 <0>        -0.4270
     18 N4         -1.0423   -7.4625   -0.0032 N.2       1 <0>        -0.2600
     19 H1          1.0357   -7.0855   -0.0215 H         1 <0>         0.4497
     20 Cl1         0.9975   -4.1008   -0.0173 Cl        1 <0>         0.0251
     21 N5         -4.4882   -3.1897    0.0260 N.pl3     1 <0>        -0.5482
     22 H2         -5.4521   -3.0817    0.0332 H         1 <0>         0.4245
     23 C15        -3.5949   -2.1673    0.0266 C.2       1 <0>         0.3268
     24 O1         -3.9070   -0.8510    0.0373 O.3       1 <0>        -0.4409
     25 S1          3.8889    2.3256   -0.0242 S.o2      1 <0>         2.7018
     26 O2          4.8718    1.4690   -0.5893 O.2       1 <0>        -0.9628
     27 O3          3.5915    3.6053   -0.5656 O.2       1 <0>        -0.9616
     28 N6          4.3249    2.5694    1.5547 N.pl3     1 <0>        -1.2499
     29 H3         -0.9586    1.9214    0.0260 H         1 <0>         0.1459
     30 H4          1.1569    3.1753    0.0081 H         1 <0>         0.1511
     31 H5          3.3502   -0.4844   -0.0334 H         1 <0>         0.1436
     32 H6          1.2472   -1.7591   -0.0205 H         1 <0>         0.1344
     33 H7         -5.3695   -5.8998    0.0293 H         1 <0>         0.1385
     34 H8         -3.8960   -7.7960    0.0166 H         1 <0>         0.1466
     35 H9         -4.0067   -0.4632   -0.8429 H         1 <0>         0.4081
     36 H10         3.7668    2.2270    2.2703 H         1 <0>         0.4171
     37 H11         5.1384    3.0546    1.7638 H         1 <0>         0.4215
@<TRIPOS>BOND
     1    1    6 ar
     2    1    2 ar
     3    1   29 1
     4    2    3 ar
     5    2   30 1
     6    3    4 ar
     7    3   25 1
     8    4    5 ar
     9    4   31 1
    10    5    6 ar
    11    5   32 1
    12    6    7 1
    13    7    8 2
    14    8    9 1
    15    9   23 2
    16    9   10 1
    17   10   15 ar
    18   10   11 ar
    19   11   12 ar
    20   11   21 1
    21   12   13 ar
    22   12   33 1
    23   13   14 ar
    24   13   34 1
    25   14   15 ar
    26   14   18 2
    27   15   16 2
    28   16   20 1
    29   16   17 1
    30   17   19 1
    31   17   18 1
    32   21   22 1
    33   21   23 1
    34   23   24 1
    35   24   35 1
    36   25   26 2
    37   25   27 2
    38   25   28 1
    39   28   36 1
    40   28   37 1
@<TRIPOS>MOLECULE
CHEMBL196508
   55    57     0     0     0
SMALL
USER_CHARGES

@<TRIPOS>ATOM
      1 C1         -8.1867   -6.7729   -1.1193 C.3       1 <0>        -0.1534
      2 C2         -6.6678   -6.7464   -0.9373 C.3       1 <0>        -0.1222
      3 C3         -5.9946   -7.3224   -2.1847 C.3       1 <0>        -0.1206
      4 C4         -4.4757   -7.2959   -2.0027 C.3       1 <0>         0.0505
      5 O1         -3.8469   -7.8338   -3.1677 O.3       1 <0>        -0.2960
      6 C5         -2.4907   -7.8826   -3.1689 C.ar      1 <0>         0.2297
      7 C6         -1.7809   -7.4258   -2.0650 C.ar      1 <0>        -0.2763
      8 C7         -0.4023   -7.4731   -2.0600 C.ar      1 <0>         0.2323
      9 C8          0.2823   -7.9833   -3.1710 C.ar      1 <0>        -0.2878
     10 C9         -0.4391   -8.4424   -4.2809 C.ar      1 <0>         0.2282
     11 C10        -1.8177   -8.3946   -4.2717 C.ar      1 <0>        -0.2169
     12 F1          0.2140   -8.9355   -5.3558 F         1 <0>        -0.1044
     13 C11         1.7546   -8.0362   -3.1722 C.2       1 <0>         0.4598
     14 O2          2.3820   -7.5478   -2.2506 O.2       1 <0>        -0.4269
     15 C12         2.4665   -8.6794   -4.2873 C.ar      1 <0>        -0.3113
     16 C13         3.1071   -7.9039   -5.2663 C.ar      1 <0>         0.0417
     17 C14         3.7577   -8.5439   -6.2855 C.ar      1 <0>        -0.2710
     18 C15         3.7690   -9.9380   -6.3274 C.ar      1 <0>         0.4471
     19 N1          3.1589  -10.6554   -5.3947 N.ar      1 <0>        -0.5783
     20 C16         2.5211  -10.0817   -4.3865 C.ar      1 <0>         0.4866
     21 N2          1.9017  -10.8637   -3.4298 N.pl3     1 <0>        -0.8390
     22 N3          4.4280  -10.5832   -7.3605 N.pl3     1 <0>        -0.6567
     23 C17         4.3413  -11.9726   -7.4849 C.ar      1 <0>         0.2284
     24 C18         3.1709  -12.6316   -7.1305 C.ar      1 <0>        -0.1395
     25 C19         3.0887  -14.0046   -7.2546 C.ar      1 <0>         0.0013
     26 C20         4.1698  -14.7233   -7.7311 C.ar      1 <0>        -0.6997
     27 C21         5.3366  -14.0705   -8.0845 C.ar      1 <0>         0.0056
     28 C22         5.4234  -12.6970   -7.9687 C.ar      1 <0>        -0.1767
     29 S1          4.0606  -16.4749   -7.8879 S.o2      1 <0>         2.7026
     30 O3          5.3915  -16.9706   -7.8410 O.2       1 <0>        -0.9660
     31 O4          3.0560  -16.9022   -6.9783 O.2       1 <0>        -0.9655
     32 N4          3.4894  -16.7957   -9.4088 N.pl3     1 <0>        -1.2510
     33 F2          0.2864   -7.0282   -0.9863 F         1 <0>        -0.1024
     34 H1         -8.4590   -6.1741   -1.9884 H         1 <0>         0.0568
     35 H2         -8.5169   -7.8009   -1.2685 H         1 <0>         0.0569
     36 H3         -8.6663   -6.3626   -0.2307 H         1 <0>         0.0590
     37 H4         -6.3376   -5.7184   -0.7881 H         1 <0>         0.0664
     38 H5         -6.3955   -7.3453   -0.0682 H         1 <0>         0.0664
     39 H6         -6.3248   -8.3504   -2.3339 H         1 <0>         0.0774
     40 H7         -6.2669   -6.7235   -3.0538 H         1 <0>         0.0774
     41 H8         -4.1455   -6.2679   -1.8535 H         1 <0>         0.0720
     42 H9         -4.2034   -7.8947   -1.1336 H         1 <0>         0.0720
     43 H10        -2.3097   -7.0324   -1.2094 H         1 <0>         0.1557
     44 H11        -2.3750   -8.7523   -5.1248 H         1 <0>         0.1585
     45 H12         3.0865   -6.8253   -5.2163 H         1 <0>         0.1391
     46 H13         4.2591   -7.9732   -7.0531 H         1 <0>         0.1389
     47 H14         1.4951  -10.4487   -2.6531 H         1 <0>         0.4083
     48 H15         1.8737  -11.8276   -3.5351 H         1 <0>         0.4109
     49 H16         4.9497  -10.0708   -7.9978 H         1 <0>         0.4252
     50 H17         2.3264  -12.0709   -6.7580 H         1 <0>         0.1459
     51 H18         2.1792  -14.5176   -6.9789 H         1 <0>         0.1434
     52 H19         6.1793  -14.6348   -8.4556 H         1 <0>         0.1452
     53 H20         6.3332  -12.1873   -8.2493 H         1 <0>         0.1357
     54 H21         3.2869  -16.0658  -10.0148 H         1 <0>         0.4164
     55 H22         3.3572  -17.7135   -9.6937 H         1 <0>         0.4205
@<TRIPOS>BOND
     1    1    2 1
     2    1   34 1
     3    1   35 1
     4    1   36 1
     5    2    3 1
     6    2   37 1
     7    2   38 1
     8    3    4 1
     9    3   39 1
    10    3   40 1
    11    4    5 1
    12    4   41 1
    13    4   42 1
    14    5    6 1
    15    6   11 ar
    16    6    7 ar
    17    7    8 ar
    18    7   43 1
    19    8    9 ar
    20    8   33 1
    21    9   10 ar
    22    9   13 1
    23   10   11 ar
    24   10   12 1
    25   11   44 1
    26   13   14 2
    27   13   15 1
    28   15   20 ar
    29   15   16 ar
    30   16   17 ar
    31   16   45 1
    32   17   18 ar
    33   17   46 1
    34   18   19 ar
    35   18   22 1
    36   19   20 ar
    37   20   21 1
    38   21   47 1
    39   21   48 1
    40   22   23 1
    41   22   49 1
    42   23   28 ar
    43   23   24 ar
    44   24   25 ar
    45   24   50 1
    46   25   26 ar
    47   25   51 1
    48   26   27 ar
    49   26   29 1
    50   27   28 ar
    51   27   52 1
    52   28   53 1
    53   29   30 2
    54   29   31 2
    55   29   32 1
    56   32   54 1
    57   32   55 1
@<TRIPOS>MOLECULE
CHEMBL191336
   43    45     0     0     0
SMALL
USER_CHARGES

@<TRIPOS>ATOM
      1 C1          1.0871   -0.4582    0.7634 C.ar      1 <0>        -0.0841
      2 C2          2.2758    0.2453    0.7461 C.ar      1 <0>        -0.1060
      3 C3          2.3811    1.4105   -0.0023 C.ar      1 <0>         0.1534
      4 C4          1.2900    1.8653   -0.7315 C.ar      1 <0>        -0.1299
      5 C5          0.1034    1.1572   -0.7102 C.ar      1 <0>        -0.0147
      6 C6          0.0023   -0.0038    0.0369 C.ar      1 <0>        -0.1136
      7 Cl1        -1.2615    1.7241   -1.6210 Cl        1 <0>        -0.0532
      8 N1          3.5831    2.1247   -0.0212 N.pl3     1 <0>        -0.6111
      9 C7          4.7870    1.4532    0.0681 C.ar      1 <0>         0.6092
     10 N2          4.8103    0.1225    0.0559 N.ar      1 <0>        -0.5711
     11 C8          5.9610   -0.5206    0.1407 C.ar      1 <0>         0.3972
     12 N3          7.0937    0.1540    0.2384 N.ar      1 <0>        -0.5742
     13 C9          7.0787    1.4846    0.2512 C.ar      1 <0>         0.4132
     14 N4          5.9238    2.1349    0.1606 N.ar      1 <0>        -0.5770
     15 C10         8.3510    2.2411    0.3609 C.ar      1 <0>         0.1166
     16 C11         8.3547    3.6403    0.3818 C.ar      1 <0>        -0.1343
     17 C12         9.5567    4.3081    0.4853 C.ar      1 <0>         0.1517
     18 N5         10.6963    3.6475    0.5643 N.ar      1 <0>        -0.4974
     19 C13        10.7408    2.3246    0.5478 C.ar      1 <0>         0.4461
     20 C14         9.5729    1.5762    0.4516 C.ar      1 <0>        -0.1493
     21 N6         11.9678    1.6766    0.6333 N.pl3     1 <0>        -0.6944
     22 C15        12.0259    0.2129    0.6157 C.3       1 <0>         0.1098
     23 C16        13.4832   -0.2409    0.7221 C.3       1 <0>        -0.1383
     24 C17        13.5439   -1.7696    0.7037 C.3       1 <0>         0.0793
     25 O1         14.9050   -2.1935    0.8030 O.3       1 <0>        -0.5727
     26 H1          1.0065   -1.3667    1.3417 H         1 <0>         0.1412
     27 H2          3.1226   -0.1104    1.3143 H         1 <0>         0.1386
     28 H3          1.3687    2.7712   -1.3141 H         1 <0>         0.1393
     29 H4         -0.9258   -0.5559    0.0520 H         1 <0>         0.1406
     30 H5          3.5716    3.0917   -0.0969 H         1 <0>         0.4322
     31 H6          5.9765   -1.6004    0.1306 H         1 <0>         0.2245
     32 H7          7.4275    4.1904    0.3174 H         1 <0>         0.1915
     33 H8          9.5656    5.3880    0.5015 H         1 <0>         0.2155
     34 H9          9.6121    0.4970    0.4430 H         1 <0>         0.1925
     35 H10        12.7854    2.1937    0.7046 H         1 <0>         0.4228
     36 H11        11.4596   -0.1834    1.4585 H         1 <0>         0.0944
     37 H12        11.5974   -0.1566   -0.3159 H         1 <0>         0.0943
     38 H13        14.0496    0.1553   -0.1207 H         1 <0>         0.0858
     39 H14        13.9118    0.1286    1.6537 H         1 <0>         0.0858
     40 H15        12.9776   -2.1659    1.5465 H         1 <0>         0.0541
     41 H16        13.1154   -2.1391   -0.2279 H         1 <0>         0.0540
     42 H17        15.0193   -3.1537    0.7974 H         1 <0>         0.3929
     43 H18        11.5254    4.1457    0.6362 H         1 <0>         0.4450
@<TRIPOS>BOND
     1    1    6 ar
     2    1    2 ar
     3    1   26 1
     4    2    3 ar
     5    2   27 1
     6    3    4 ar
     7    3    8 1
     8    4    5 ar
     9    4   28 1
    10    5    6 ar
    11    5    7 1
    12    6   29 1
    13    8    9 1
    14    8   30 1
    15    9   14 ar
    16    9   10 ar
    17   10   11 ar
    18   11   12 ar
    19   11   31 1
    20   12   13 ar
    21   13   14 ar
    22   13   15 1
    23   15   20 ar
    24   15   16 ar
    25   16   17 ar
    26   16   32 1
    27   17   18 ar
    28   17   33 1
    29   18   19 ar
    30   18   43 1
    31   19   20 ar
    32   19   21 1
    33   20   34 1
    34   21   22 1
    35   21   35 1
    36   22   23 1
    37   22   36 1
    38   22   37 1
    39   23   24 1
    40   23   38 1
    41   23   39 1
    42   24   25 1
    43   24   40 1
    44   24   41 1
    45   25   42 1
@<TRIPOS>MOLECULE
CHEMBL191336
   42    44     0     0     0
SMALL
USER_CHARGES

@<TRIPOS>ATOM
      1 C1          1.0871   -0.4582    0.7634 C.ar      1 <0>        -0.0850
      2 C2          2.2758    0.2453    0.7461 C.ar      1 <0>        -0.1079
      3 C3          2.3811    1.4105   -0.0023 C.ar      1 <0>         0.1696
      4 C4          1.2900    1.8653   -0.7315 C.ar      1 <0>        -0.1367
      5 C5          0.1034    1.1572   -0.7102 C.ar      1 <0>        -0.0140
      6 C6          0.0023   -0.0038    0.0369 C.ar      1 <0>        -0.1228
      7 Cl1        -1.2615    1.7241   -1.6210 Cl        1 <0>        -0.0621
      8 N1          3.5831    2.1247   -0.0212 N.pl3     1 <0>        -0.6222
      9 C7          4.7870    1.4532    0.0681 C.ar      1 <0>         0.6008
     10 N2          4.8103    0.1225    0.0559 N.ar      1 <0>        -0.5922
     11 C8          5.9610   -0.5206    0.1407 C.ar      1 <0>         0.3848
     12 N3          7.0937    0.1540    0.2384 N.ar      1 <0>        -0.5788
     13 C9          7.0787    1.4846    0.2512 C.ar      1 <0>         0.4482
     14 N4          5.9238    2.1349    0.1606 N.ar      1 <0>        -0.5834
     15 C10         8.3510    2.2411    0.3609 C.ar      1 <0>         0.0272
     16 C11         8.3547    3.6403    0.3818 C.ar      1 <0>        -0.1808
     17 C12         9.5567    4.3081    0.4853 C.ar      1 <0>         0.1456
     18 N5         10.6963    3.6475    0.5643 N.ar      1 <0>        -0.5276
     19 C13        10.7407    2.3246    0.5482 C.ar      1 <0>         0.3980
     20 C14         9.5729    1.5762    0.4516 C.ar      1 <0>        -0.1808
     21 N6         11.9677    1.6766    0.6342 N.pl3     1 <0>        -0.7236
     22 C15        12.0258    0.2129    0.6171 C.3       1 <0>         0.1296
     23 C16        13.4831   -0.2410    0.7239 C.3       1 <0>        -0.1335
     24 C17        13.5438   -1.7697    0.7060 C.3       1 <0>         0.0797
     25 O1         14.9048   -2.1935    0.8057 O.3       1 <0>        -0.5745
     26 H1          1.0065   -1.3667    1.3417 H         1 <0>         0.1381
     27 H2          3.1226   -0.1104    1.3143 H         1 <0>         0.1402
     28 H3          1.3687    2.7712   -1.3141 H         1 <0>         0.1375
     29 H4         -0.9258   -0.5559    0.0520 H         1 <0>         0.1365
     30 H5          3.5716    3.0917   -0.0969 H         1 <0>         0.4297
     31 H6          5.9765   -1.6004    0.1306 H         1 <0>         0.2150
     32 H7          7.4275    4.1904    0.3174 H         1 <0>         0.1458
     33 H8          9.5656    5.3880    0.5015 H         1 <0>         0.1644
     34 H9          9.6121    0.4970    0.4430 H         1 <0>         0.1475
     35 H10        12.7853    2.1937    0.7055 H         1 <0>         0.4083
     36 H11        11.4593   -0.1831    1.4599 H         1 <0>         0.0680
     37 H12        11.5975   -0.1569   -0.3145 H         1 <0>         0.0679
     38 H13        14.0496    0.1550   -0.1190 H         1 <0>         0.0791
     39 H14        13.9115    0.1288    1.6554 H         1 <0>         0.0791
     40 H15        12.9772   -2.1656    1.5488 H         1 <0>         0.0503
     41 H16        13.1154   -2.1394   -0.2256 H         1 <0>         0.0503
     42 H17        15.0191   -3.1537    0.8005 H         1 <0>         0.3845
@<TRIPOS>BOND
     1    1    6 ar
     2    1    2 ar
     3    1   26 1
     4    2    3 ar
     5    2   27 1
     6    3    4 ar
     7    3    8 1
     8    4    5 ar
     9    4   28 1
    10    5    6 ar
    11    5    7 1
    12    6   29 1
    13    8    9 1
    14    8   30 1
    15    9   14 ar
    16    9   10 ar
    17   10   11 ar
    18   11   12 ar
    19   11   31 1
    20   12   13 ar
    21   13   14 ar
    22   13   15 1
    23   15   20 ar
    24   15   16 ar
    25   16   17 ar
    26   16   32 1
    27   17   18 ar
    28   17   33 1
    29   18   19 ar
    30   19   20 ar
    31   19   21 1
    32   20   34 1
    33   21   22 1
    34   21   35 1
    35   22   23 1
    36   22   36 1
    37   22   37 1
    38   23   24 1
    39   23   38 1
    40   23   39 1
    41   24   25 1
    42   24   40 1
    43   24   41 1
    44   25   42 1
@<TRIPOS>MOLECULE
CHEMBL388956
   32    35     0     0     0
SMALL
USER_CHARGES

@<TRIPOS>ATOM
      1 C1         -0.0173    1.4248    0.0099 C.3       1 <0>         0.0264
      2 O1          0.0021   -0.0041    0.0020 O.3       1 <0>        -0.3177
      3 C2         -1.1983   -0.6364    0.0101 C.ar      1 <0>         0.1293
      4 C3         -1.8188   -0.9691    1.2157 C.ar      1 <0>         0.0834
      5 C4         -3.0472   -1.6173    1.2697 C.ar      1 <0>        -0.0281
      6 C5         -3.7012   -1.9549    0.0898 C.ar      1 <0>        -0.1462
      7 C6         -3.0677   -1.6134   -1.1114 C.ar      1 <0>        -0.0767
      8 C7         -1.8405   -0.9622   -1.1899 C.ar      1 <0>        -0.0288
      9 C8         -1.3351   -0.6842   -2.5348 C.ar      1 <0>        -0.0229
     10 C9         -0.1150   -0.0475   -2.7493 C.ar      1 <0>        -0.1335
     11 C10         0.3135    0.1905   -4.0405 C.ar      1 <0>         0.1142
     12 C11        -0.4697   -0.2028   -5.1264 C.ar      1 <0>        -0.1330
     13 C12        -1.6645   -0.8268   -4.9390 C.ar      1 <0>        -0.0855
     14 C13        -2.1313   -1.0871   -3.6388 C.ar      1 <0>        -0.0376
     15 C14        -3.3735   -1.7409   -3.4547 C.ar      1 <0>        -0.0940
     16 C15        -3.8448   -2.0142   -2.2055 C.ar      1 <0>         0.1426
     17 N1         -4.9857   -2.6190   -1.6827 N.am      1 <0>        -0.6534
     18 C16        -4.9451   -2.6078   -0.3259 C.2       1 <0>         0.5792
     19 O2         -5.7957   -3.0616    0.4172 O.2       1 <0>        -0.4857
     20 O3          1.5032    0.8110   -4.2544 O.3       1 <0>        -0.4964
     21 O4         -1.1972   -0.6471    2.3820 O.3       1 <0>        -0.4791
     22 H1          1.0053    1.8021    0.0021 H         1 <0>         0.1064
     23 H2         -0.5445    1.7859   -0.8732 H         1 <0>         0.0552
     24 H3         -0.5275    1.7763    0.9067 H         1 <0>         0.0514
     25 H4         -3.4918   -1.8581    2.2241 H         1 <0>         0.1530
     26 H5          0.4924    0.2588   -1.9104 H         1 <0>         0.1529
     27 H6         -0.1227   -0.0088   -6.1305 H         1 <0>         0.1348
     28 H7         -2.2565   -1.1228   -5.7924 H         1 <0>         0.1374
     29 H8         -3.9533   -2.0337   -4.3176 H         1 <0>         0.1391
     30 H9         -5.7061   -2.9947   -2.2126 H         1 <0>         0.4266
     31 H10         2.2547    0.2067   -4.3257 H         1 <0>         0.3950
     32 H11        -1.4293    0.2275    2.7229 H         1 <0>         0.3917
@<TRIPOS>BOND
     1    1    2 1
     2    1   22 1
     3    1   23 1
     4    1   24 1
     5    2    3 1
     6    3    8 ar
     7    3    4 ar
     8    4    5 ar
     9    4   21 1
    10    5    6 ar
    11    5   25 1
    12    6   18 1
    13    6    7 ar
    14    7   16 ar
    15    7    8 ar
    16    8    9 ar
    17    9   14 ar
    18    9   10 ar
    19   10   11 ar
    20   10   26 1
    21   11   12 ar
    22   11   20 1
    23   12   13 ar
    24   12   27 1
    25   13   14 ar
    26   13   28 1
    27   14   15 ar
    28   15   16 ar
    29   15   29 1
    30   16   17 1
    31   17   18 am
    32   17   30 1
    33   18   19 2
    34   20   31 1
    35   21   32 1
@<TRIPOS>MOLECULE
CHEMBL48362
   53    56     0     0     0
SMALL
USER_CHARGES

@<TRIPOS>ATOM
      1 C1          0.1066    1.4571    0.0703 C.3       1 <0>        -0.0481
      2 N1          0.1179   -0.0118    0.0597 N.4       1 <0>        -0.3844
      3 C2         -1.2626   -0.5101    0.0375 C.3       1 <0>        -0.0069
      4 C3         -1.2562   -2.0374   -0.0554 C.3       1 <0>        -0.1465
      5 C4         -0.5232   -2.6142    1.1592 C.3       1 <0>        -0.0440
      6 C5          0.8914   -2.0301    1.2141 C.3       1 <0>        -0.1452
      7 C6          0.8054   -0.5030    1.2599 C.3       1 <0>        -0.0057
      8 C7         -0.4446   -4.1140    1.0350 C.ar      1 <0>        -0.1519
      9 C8          0.2089   -4.6840   -0.0479 C.ar      1 <0>         0.2025
     10 C9          0.2915   -6.0646   -0.1794 C.ar      1 <0>        -0.2043
     11 C10        -0.2817   -6.8849    0.7760 C.ar      1 <0>         0.2515
     12 C11        -0.9429   -6.3148    1.8716 C.ar      1 <0>        -0.2952
     13 C12        -1.0215   -4.9188    2.0074 C.ar      1 <0>         0.1766
     14 O1         -1.6953   -4.6083    3.1368 O.3       1 <0>        -0.2057
     15 C13        -2.0910   -5.7160    3.8067 C.2       1 <0>        -0.0256
     16 C14        -2.7845   -5.7433    4.9709 C.2       1 <0>        -0.0234
     17 C15        -3.0765   -4.4902    5.6821 C.ar      1 <0>        -0.0206
     18 C16        -3.6735   -4.5220    6.9473 C.ar      1 <0>        -0.1084
     19 C17        -3.9441   -3.3424    7.6075 C.ar      1 <0>        -0.0174
     20 C18        -3.6268   -2.1288    7.0222 C.ar      1 <0>        -0.6644
     21 C19        -3.0361   -2.0886    5.7710 C.ar      1 <0>        -0.0242
     22 C20        -2.7537   -3.2593    5.0999 C.ar      1 <0>        -0.1245
     23 S1         -3.9773   -0.6269    7.8743 S.o2      1 <0>         2.6999
     24 O2         -4.0851    0.3863    6.8838 O.2       1 <0>        -0.9633
     25 O3         -5.0271   -0.9138    8.7880 O.2       1 <0>        -0.9544
     26 N2         -2.6444   -0.2582    8.7853 N.pl3     1 <0>        -1.2491
     27 C21        -1.6413   -6.8863    3.0337 C.2       1 <0>         0.4155
     28 O4         -1.8012   -8.0642    3.3028 O.2       1 <0>        -0.3908
     29 O5         -0.2044   -8.2337    0.6522 O.3       1 <0>        -0.4800
     30 O6          0.7730   -3.8846   -0.9887 O.3       1 <0>        -0.4848
     31 H1          1.1315    1.8283    0.0802 H         1 <0>         0.1241
     32 H2         -0.4037    1.8230   -0.8206 H         1 <0>         0.1247
     33 H3         -0.4162    1.8100    0.9593 H         1 <0>         0.1225
     34 H4         -1.7735   -0.2042    0.9504 H         1 <0>         0.1291
     35 H5         -1.7839   -0.0962   -0.8257 H         1 <0>         0.1336
     36 H6         -2.2820   -2.4055   -0.0700 H         1 <0>         0.1119
     37 H7         -0.7456   -2.3444   -0.9682 H         1 <0>         0.1081
     38 H8         -1.0620   -2.3503    2.0692 H         1 <0>         0.0997
     39 H9          1.4007   -2.3930    2.1069 H         1 <0>         0.1142
     40 H10         1.4466   -2.3370    0.3276 H         1 <0>         0.0897
     41 H11         1.8109   -0.0840    1.2993 H         1 <0>         0.1337
     42 H12         0.2504   -0.1973    2.1468 H         1 <0>         0.1304
     43 H13         0.8025   -6.4972   -1.0268 H         1 <0>         0.1575
     44 H14        -3.1226   -6.6855    5.3762 H         1 <0>         0.1755
     45 H15        -3.9220   -5.4681    7.4051 H         1 <0>         0.1463
     46 H16        -4.4051   -3.3652    8.5839 H         1 <0>         0.1525
     47 H17        -2.7919   -1.1376    5.3210 H         1 <0>         0.1437
     48 H18        -2.2887   -3.2264    4.1257 H         1 <0>         0.1499
     49 H19        -1.8699   -0.8420    8.7699 H         1 <0>         0.4167
     50 H20        -2.6383    0.5414    9.3343 H         1 <0>         0.4242
     51 H21         0.5749   -8.6232    1.0719 H         1 <0>         0.4114
     52 H22         1.6933   -3.6508   -0.8057 H         1 <0>         0.3984
     53 H23         0.6042   -0.3375   -0.7622 H         1 <0>         0.4253
@<TRIPOS>BOND
     1    1    2 1
     2    1   31 1
     3    1   32 1
     4    1   33 1
     5    2    7 1
     6    2    3 1
     7    2   53 1
     8    3    4 1
     9    3   34 1
    10    3   35 1
    11    4    5 1
    12    4   36 1
    13    4   37 1
    14    5    6 1
    15    5    8 1
    16    5   38 1
    17    6    7 1
    18    6   39 1
    19    6   40 1
    20    7   41 1
    21    7   42 1
    22    8   13 ar
    23    8    9 ar
    24    9   10 ar
    25    9   30 1
    26   10   11 ar
    27   10   43 1
    28   11   12 ar
    29   11   29 1
    30   12   27 1
    31   12   13 ar
    32   13   14 1
    33   14   15 1
    34   15   16 2
    35   15   27 1
    36   16   17 1
    37   16   44 1
    38   17   22 ar
    39   17   18 ar
    40   18   19 ar
    41   18   45 1
    42   19   20 ar
    43   19   46 1
    44   20   21 ar
    45   20   23 1
    46   21   22 ar
    47   21   47 1
    48   22   48 1
    49   23   24 2
    50   23   25 2
    51   23   26 1
    52   26   49 1
    53   26   50 1
    54   27   28 2
    55   29   51 1
    56   30   52 1
@<TRIPOS>MOLECULE
CHEMBL180993
   38    40     0     0     0
SMALL
USER_CHARGES

@<TRIPOS>ATOM
      1 C1          0.6805    2.0585   -0.0828 C.3       1 <0>        -0.1459
      2 C2          0.4516    0.5471   -0.0178 C.3       1 <0>        -0.0445
      3 C3         -1.0496    0.2616    0.0584 C.3       1 <0>        -0.1457
      4 C4          1.0243   -0.1012   -1.2518 C.ar      1 <0>        -0.1068
      5 C5          0.5623    0.2533   -2.5009 C.ar      1 <0>         0.1609
      6 C6          1.0856   -0.3417   -3.6533 C.ar      1 <0>        -0.1602
      7 C7          2.0632   -1.2849   -3.5703 C.ar      1 <0>        -0.0453
      8 C8          2.5555   -1.6677   -2.3137 C.ar      1 <0>        -0.2153
      9 C9          2.0341   -1.0646   -1.1389 C.ar      1 <0>         0.2237
     10 N1          2.5223   -1.4418    0.0503 N.ar      1 <0>        -0.5586
     11 C10         3.4734   -2.3529    0.1180 C.ar      1 <0>         0.5656
     12 N2          3.9891   -2.9339   -0.9637 N.ar      1 <0>        -0.5494
     13 C11         3.5645   -2.6376   -2.1746 C.ar      1 <0>         0.2407
     14 N3          3.9552   -2.7196    1.3630 N.pl3     1 <0>        -0.6362
     15 C12         5.0413   -3.5941    1.4624 C.ar      1 <0>         0.1628
     16 C13         6.0489   -3.5641    0.5067 C.ar      1 <0>        -0.1150
     17 C14         7.1204   -4.4295    0.6078 C.ar      1 <0>        -0.1001
     18 C15         7.1908   -5.3255    1.6588 C.ar      1 <0>        -0.1380
     19 C16         6.1892   -5.3583    2.6117 C.ar      1 <0>        -0.0983
     20 C17         5.1182   -4.4911    2.5202 C.ar      1 <0>        -0.1491
     21 O1         -0.4129    1.1912   -2.6141 O.3       1 <0>        -0.4879
     22 H1          1.7500    2.2620   -0.1371 H         1 <0>         0.0518
     23 H2          0.1884    2.4628   -0.9674 H         1 <0>         0.0561
     24 H3          0.2663    2.5275    0.8097 H         1 <0>         0.0617
     25 H4          0.9437    0.1428    0.8668 H         1 <0>         0.0916
     26 H5         -1.5417    0.6659   -0.8261 H         1 <0>         0.0718
     27 H6         -1.2127   -0.8152    0.1047 H         1 <0>         0.0487
     28 H7         -1.4638    0.7305    0.9509 H         1 <0>         0.0556
     29 H8          0.7086   -0.0491   -4.6221 H         1 <0>         0.1374
     30 H9          2.4581   -1.7370   -4.4681 H         1 <0>         0.1402
     31 H10         3.9913   -3.1185   -3.0423 H         1 <0>         0.1810
     32 H11         3.5391   -2.3697    2.1663 H         1 <0>         0.4241
     33 H12         5.9942   -2.8651   -0.3147 H         1 <0>         0.1320
     34 H13         7.9042   -4.4066   -0.1349 H         1 <0>         0.1245
     35 H14         8.0297   -6.0014    1.7354 H         1 <0>         0.1227
     36 H15         6.2469   -6.0595    3.4311 H         1 <0>         0.1259
     37 H16         4.3387   -4.5140    3.2673 H         1 <0>         0.1240
     38 H17        -0.0811    2.0960   -2.6944 H         1 <0>         0.3935
@<TRIPOS>BOND
     1    1    2 1
     2    1   22 1
     3    1   23 1
     4    1   24 1
     5    2    3 1
     6    2    4 1
     7    2   25 1
     8    3   26 1
     9    3   27 1
    10    3   28 1
    11    4    9 ar
    12    4    5 ar
    13    5    6 ar
    14    5   21 1
    15    6    7 ar
    16    6   29 1
    17    7    8 ar
    18    7   30 1
    19    8   13 ar
    20    8    9 ar
    21    9   10 ar
    22   10   11 ar
    23   11   12 ar
    24   11   14 1
    25   12   13 ar
    26   13   31 1
    27   14   15 1
    28   14   32 1
    29   15   20 ar
    30   15   16 ar
    31   16   17 ar
    32   16   33 1
    33   17   18 ar
    34   17   34 1
    35   18   19 ar
    36   18   35 1
    37   19   20 ar
    38   19   36 1
    39   20   37 1
    40   21   38 1
@<TRIPOS>MOLECULE
CHEMBL202695
   57    60     0     0     0
SMALL
USER_CHARGES

@<TRIPOS>ATOM
      1 C1          7.2281    3.6438    1.5361 C.3       1 <0>         0.0808
      2 N1          6.6814    4.0469    0.2381 N.pl3     1 <0>        -1.0062
      3 C2          5.4021    4.7577    0.1710 C.3       1 <0>         0.0878
      4 S1          7.5095    3.6992   -1.1532 S.o2      1 <0>         2.6951
      5 O1          7.0818    4.6418   -2.1267 O.2       1 <0>        -0.9505
      6 O2          8.8741    3.5485   -0.7867 O.2       1 <0>        -0.9533
      7 C3          6.9591    2.1193   -1.7060 C.ar      1 <0>        -0.7059
      8 C4          7.6024    0.9743   -1.2731 C.ar      1 <0>         0.0229
      9 C5          7.1736   -0.2656   -1.7044 C.ar      1 <0>        -0.1759
     10 C6          6.0944   -0.3618   -2.5737 C.ar      1 <0>         0.2410
     11 C7          5.4501    0.7903   -3.0062 C.ar      1 <0>        -0.1807
     12 C8          5.8811    2.0268   -2.5672 C.ar      1 <0>         0.0211
     13 N2          5.6580   -1.6151   -3.0126 N.pl3     1 <0>        -0.6727
     14 C9          6.3836   -2.7461   -2.7008 C.2       1 <0>         0.4691
     15 C10         5.8038   -3.7751   -2.0129 C.2       1 <0>        -0.2729
     16 C11         6.5692   -4.9109   -1.7118 C.2       1 <0>         0.4913
     17 N3          7.8357   -4.9811   -2.0906 N.2       1 <0>        -0.5352
     18 C12         8.4094   -3.9776   -2.7641 C.2       1 <0>         0.4964
     19 N4          7.6930   -2.8579   -3.0800 N.pl3     1 <0>        -0.3663
     20 N5          8.5650   -2.0144   -3.7807 N.2       1 <0>        -0.3263
     21 C13         9.7169   -2.6329   -3.8604 C.2       1 <0>         0.2598
     22 N6          9.6360   -3.8077   -3.2458 N.2       1 <0>        -0.5346
     23 N7          5.9987   -5.9618   -1.0158 N.pl3     1 <0>        -0.6948
     24 C14         6.7959   -7.1496   -0.6998 C.3       1 <0>         0.1468
     25 C15         6.7679   -8.1135   -1.8877 C.3       1 <0>        -0.1298
     26 C16         7.6004   -9.3540   -1.5576 C.3       1 <0>        -0.1392
     27 C17         7.0166  -10.0469   -0.3248 C.3       1 <0>         0.0237
     28 C18         7.0446   -9.0830    0.8631 C.3       1 <0>        -0.1374
     29 C19         6.2120   -7.8425    0.5331 C.3       1 <0>        -0.1281
     30 N8          7.8159  -11.2379   -0.0079 N.4       1 <0>        -0.6368
     31 H1          6.8686    2.6461    1.7878 H         1 <0>         0.0542
     32 H2          8.3169    3.6356    1.4851 H         1 <0>         0.0844
     33 H3          6.9057    4.3499    2.3013 H         1 <0>         0.0806
     34 H4          5.0096    4.8953    1.1785 H         1 <0>         0.0837
     35 H5          5.5513    5.7308   -0.2969 H         1 <0>         0.0712
     36 H6          4.6937    4.1758   -0.4186 H         1 <0>         0.0593
     37 H7          8.4414    1.0498   -0.5972 H         1 <0>         0.1423
     38 H8          7.6770   -1.1594   -1.3665 H         1 <0>         0.1170
     39 H9          4.6109    0.7190   -3.6823 H         1 <0>         0.1392
     40 H10         5.3780    2.9227   -2.8999 H         1 <0>         0.1478
     41 H11         4.8450   -1.6896   -3.5364 H         1 <0>         0.4307
     42 H12         4.7703   -3.7141   -1.7052 H         1 <0>         0.1721
     43 H13        10.6006   -2.2428   -4.3436 H         1 <0>         0.2325
     44 H14         5.0710   -5.9122   -0.7371 H         1 <0>         0.4191
     45 H15         7.8249   -6.8531   -0.4967 H         1 <0>         0.1040
     46 H16         5.7388   -8.4100   -2.0908 H         1 <0>         0.0763
     47 H17         7.1838   -7.6199   -2.7660 H         1 <0>         0.0932
     48 H18         7.5805  -10.0407   -2.4039 H         1 <0>         0.0924
     49 H19         8.6295   -9.0575   -1.3545 H         1 <0>         0.0938
     50 H20         5.9875  -10.3434   -0.5279 H         1 <0>         0.1429
     51 H21         6.6286   -9.5766    1.7414 H         1 <0>         0.0952
     52 H22         8.0736   -8.7865    1.0662 H         1 <0>         0.0936
     53 H23         6.2320   -7.1558    1.3794 H         1 <0>         0.0942
     54 H24         5.1830   -8.1390    0.3300 H         1 <0>         0.0825
     55 H25         8.7685  -10.9634    0.1801 H         1 <0>         0.4346
     56 H26         7.4309  -11.6949    0.8051 H         1 <0>         0.4365
     57 H27         7.7974  -11.8736   -0.7913 H         1 <0>         0.4374
@<TRIPOS>BOND
     1    1    2 1
     2    1   31 1
     3    1   32 1
     4    1   33 1
     5    2    3 1
     6    2    4 1
     7    3   34 1
     8    3   35 1
     9    3   36 1
    10    4    5 2
    11    4    6 2
    12    4    7 1
    13    7   12 ar
    14    7    8 ar
    15    8    9 ar
    16    8   37 1
    17    9   10 ar
    18    9   38 1
    19   10   11 ar
    20   10   13 1
    21   11   12 ar
    22   11   39 1
    23   12   40 1
    24   13   14 1
    25   13   41 1
    26   14   19 1
    27   14   15 2
    28   15   16 1
    29   15   42 1
    30   16   17 2
    31   16   23 1
    32   17   18 1
    33   18   22 2
    34   18   19 1
    35   19   20 1
    36   20   21 2
    37   21   22 1
    38   21   43 1
    39   23   24 1
    40   23   44 1
    41   24   29 1
    42   24   25 1
    43   24   45 1
    44   25   26 1
    45   25   46 1
    46   25   47 1
    47   26   27 1
    48   26   48 1
    49   26   49 1
    50   27   28 1
    51   27   30 1
    52   27   50 1
    53   28   29 1
    54   28   51 1
    55   28   52 1
    56   29   53 1
    57   29   54 1
    58   30   55 1
    59   30   56 1
    60   30   57 1
@<TRIPOS>MOLECULE
CHEMBL1094488
   53    57     0     0     0
SMALL
USER_CHARGES

@<TRIPOS>ATOM
      1 C1         -0.8020    1.6213   -0.1230 C.3       1 <0>         0.0868
      2 N1         -0.7554    0.1580   -0.0699 N.pl3     1 <0>        -0.2379
      3 C2         -0.5515   -0.6498   -1.1280 C.2       1 <0>         0.0320
      4 C3         -0.5565   -1.9444   -0.6532 C.2       1 <0>        -0.1032
      5 C4         -0.7944   -1.8418    0.7175 C.2       1 <0>        -0.0146
      6 N2         -0.8981   -0.5515    0.9993 N.2       1 <0>        -0.2473
      7 C5         -0.9050   -2.9611    1.6755 C.2       1 <0>         0.6123
      8 O1         -0.7856   -4.1071    1.2877 O.2       1 <0>        -0.5291
      9 N3         -1.1384   -2.7117    2.9792 N.am      1 <0>        -0.8410
     10 C6         -0.3204   -3.1307   -1.5419 C.3       1 <0>        -0.0500
     11 C7         -0.8489   -2.8377   -2.9463 C.3       1 <0>        -0.0643
     12 C8         -0.4505   -1.4769   -3.4385 C.ar      1 <0>        -0.2142
     13 C9         -0.3257   -0.3906   -2.5602 C.ar      1 <0>         0.2904
     14 N4         -0.0100    0.8063   -3.0312 N.ar      1 <0>        -0.5573
     15 C10         0.2101    0.9735   -4.3287 C.ar      1 <0>         0.5642
     16 N5          0.1240   -0.0362   -5.1827 N.ar      1 <0>        -0.5473
     17 C11        -0.2003   -1.2557   -4.7797 C.ar      1 <0>         0.1970
     18 N6          0.5373    2.2336   -4.8022 N.pl3     1 <0>        -0.6339
     19 C12         0.6499    2.4560   -6.1779 C.ar      1 <0>         0.1719
     20 C13        -0.1488    1.7459   -7.0655 C.ar      1 <0>        -0.1133
     21 C14        -0.0354    1.9683   -8.4236 C.ar      1 <0>        -0.1012
     22 C15         0.8724    2.8965   -8.9005 C.ar      1 <0>        -0.1342
     23 C16         1.6691    3.6046   -8.0199 C.ar      1 <0>        -0.0932
     24 C17         1.5563    3.3914   -6.6598 C.ar      1 <0>        -0.1072
     25 C18         2.4203    4.1685   -5.7003 C.3       1 <0>        -0.0377
     26 C19         3.6497    3.3634   -5.3662 C.ar      1 <0>        -0.0758
     27 C20         3.6347    2.4918   -4.2934 C.ar      1 <0>        -0.1109
     28 C21         4.7623    1.7533   -3.9870 C.ar      1 <0>        -0.1178
     29 C22         5.9049    1.8861   -4.7537 C.ar      1 <0>        -0.1216
     30 C23         5.9196    2.7571   -5.8271 C.ar      1 <0>        -0.1170
     31 C24         4.7905    3.4924   -6.1361 C.ar      1 <0>        -0.1118
     32 H1          0.2006    2.0224    0.0249 H         1 <0>         0.0916
     33 H2         -1.1802    1.9377   -1.0951 H         1 <0>         0.1039
     34 H3         -1.4613    1.9925    0.6616 H         1 <0>         0.0990
     35 H4         -1.2337   -1.7974    3.2886 H         1 <0>         0.4079
     36 H5         -1.2111   -3.4466    3.6082 H         1 <0>         0.4083
     37 H6          0.7484   -3.3384   -1.5928 H         1 <0>         0.0828
     38 H7         -0.8384   -3.9984   -1.1334 H         1 <0>         0.1029
     39 H8         -0.4596   -3.5890   -3.6333 H         1 <0>         0.0893
     40 H9         -1.9368   -2.9037   -2.9344 H         1 <0>         0.0817
     41 H10        -0.2687   -2.0664   -5.4900 H         1 <0>         0.1770
     42 H11         0.6883    2.9617   -4.1792 H         1 <0>         0.4199
     43 H12        -0.8573    1.0205   -6.6938 H         1 <0>         0.1348
     44 H13        -0.6560    1.4166   -9.1142 H         1 <0>         0.1243
     45 H14         0.9593    3.0683   -9.9632 H         1 <0>         0.1229
     46 H15         2.3774    4.3281   -8.3956 H         1 <0>         0.1248
     47 H16         2.7171    5.1111   -6.1602 H         1 <0>         0.0874
     48 H17         1.8592    4.3703   -4.7878 H         1 <0>         0.0731
     49 H18         2.7420    2.3880   -3.6944 H         1 <0>         0.1134
     50 H19         4.7508    1.0729   -3.1484 H         1 <0>         0.1172
     51 H20         6.7861    1.3097   -4.5139 H         1 <0>         0.1208
     52 H21         6.8124    2.8611   -6.4259 H         1 <0>         0.1225
     53 H22         4.8008    4.1701   -6.9769 H         1 <0>         0.1217
@<TRIPOS>BOND
     1    1    2 1
     2    1   32 1
     3    1   33 1
     4    1   34 1
     5    2    6 1
     6    2    3 1
     7    3   13 1
     8    3    4 2
     9    4    5 1
    10    4   10 1
    11    5    6 2
    12    5    7 1
    13    7    8 2
    14    7    9 am
    15    9   35 1
    16    9   36 1
    17   10   11 1
    18   10   37 1
    19   10   38 1
    20   11   12 1
    21   11   39 1
    22   11   40 1
    23   12   17 ar
    24   12   13 ar
    25   13   14 ar
    26   14   15 ar
    27   15   16 ar
    28   15   18 1
    29   16   17 ar
    30   17   41 1
    31   18   19 1
    32   18   42 1
    33   19   24 ar
    34   19   20 ar
    35   20   21 ar
    36   20   43 1
    37   21   22 ar
    38   21   44 1
    39   22   23 ar
    40   22   45 1
    41   23   24 ar
    42   23   46 1
    43   24   25 1
    44   25   26 1
    45   25   47 1
    46   25   48 1
    47   26   31 ar
    48   26   27 ar
    49   27   28 ar
    50   27   49 1
    51   28   29 ar
    52   28   50 1
    53   29   30 ar
    54   29   51 1
    55   30   31 ar
    56   30   52 1
    57   31   53 1
@<TRIPOS>MOLECULE
CHEMBL1094820
   52    56     0     0     0
SMALL
USER_CHARGES

@<TRIPOS>ATOM
      1 C1          0.7142    1.6988    0.1165 C.3       1 <0>         0.0871
      2 N1          0.5771    0.2419    0.1863 N.pl3     1 <0>        -0.2383
      3 C2          0.2910   -0.5605   -0.8569 C.2       1 <0>         0.0312
      4 C3          0.2746   -1.8534   -0.3778 C.2       1 <0>        -0.1026
      5 C4          0.5412   -1.7523    0.9877 C.2       1 <0>        -0.0144
      6 N2          0.7176   -0.4671    1.2560 N.2       1 <0>        -0.2471
      7 C5          0.6177   -2.8690    1.9522 C.2       1 <0>         0.6124
      8 O1          0.4392   -4.0109    1.5754 O.2       1 <0>        -0.5289
      9 N3          0.8853   -2.6216    3.2497 N.am      1 <0>        -0.8410
     10 C6          0.0255   -3.0390   -1.2638 C.3       1 <0>        -0.0503
     11 C7         -0.9106   -2.6432   -2.4059 C.3       1 <0>        -0.0644
     12 C8         -0.5259   -1.3378   -3.0389 C.ar      1 <0>        -0.2147
     13 C9          0.0411   -0.3000   -2.2848 C.ar      1 <0>         0.2914
     14 N4          0.3341    0.8538   -2.8652 N.ar      1 <0>        -0.5581
     15 C10         0.1128    1.0207   -4.1626 C.ar      1 <0>         0.5641
     16 N5         -0.3995    0.0529   -4.9092 N.ar      1 <0>        -0.5482
     17 C11        -0.7270   -1.1205   -4.3890 C.ar      1 <0>         0.1965
     18 N6          0.4241    2.2353   -4.7508 N.pl3     1 <0>        -0.6316
     19 C12         0.3213    2.3879   -6.1393 C.ar      1 <0>         0.1059
     20 C13         0.4064    1.2798   -6.9689 C.ar      1 <0>        -0.0875
     21 C14         0.3042    1.4326   -8.3391 C.ar      1 <0>        -0.1408
     22 C15         0.1175    2.6885   -8.8869 C.ar      1 <0>        -0.0959
     23 C16         0.0320    3.7987   -8.0678 C.ar      1 <0>        -0.1664
     24 C17         0.1272    3.6540   -6.6915 C.ar      1 <0>         0.1682
     25 N7          0.0346    4.7759   -5.8597 N.pl3     1 <0>        -0.6894
     26 C18        -0.3116    6.0176   -6.3977 C.ar      1 <0>         0.1698
     27 C19        -1.3205    6.1075   -7.3486 C.ar      1 <0>        -0.1521
     28 C20        -1.6602    7.3367   -7.8784 C.ar      1 <0>        -0.0939
     29 C21        -0.9973    8.4773   -7.4636 C.ar      1 <0>        -0.1423
     30 C22         0.0075    8.3915   -6.5173 C.ar      1 <0>        -0.0927
     31 C23         0.3484    7.1663   -5.9790 C.ar      1 <0>        -0.1543
     32 H1          1.7508    1.9562   -0.1011 H         1 <0>         0.0916
     33 H2          0.0702    2.0870   -0.6727 H         1 <0>         0.1031
     34 H3          0.4237    2.1373    1.0711 H         1 <0>         0.0991
     35 H4          1.0278   -1.7104    3.5504 H         1 <0>         0.4079
     36 H5          0.9355   -3.3547    3.8829 H         1 <0>         0.4084
     37 H6          0.9721   -3.3889   -1.6757 H         1 <0>         0.0834
     38 H7         -0.4322   -3.8378   -0.6802 H         1 <0>         0.1030
     39 H8         -0.8886   -3.4238   -3.1663 H         1 <0>         0.0901
     40 H9         -1.9256   -2.5609   -2.0172 H         1 <0>         0.0819
     41 H10        -1.1454   -1.8974   -5.0117 H         1 <0>         0.1788
     42 H11         0.7133    2.9804   -4.2011 H         1 <0>         0.4156
     43 H12         0.5529    0.2975   -6.5445 H         1 <0>         0.1524
     44 H13         0.3707    0.5686   -8.9836 H         1 <0>         0.1246
     45 H14         0.0387    2.8023   -9.9580 H         1 <0>         0.1243
     46 H15        -0.1131    4.7781   -8.4991 H         1 <0>         0.1347
     47 H16         0.2108    4.6911   -4.9096 H         1 <0>         0.4021
     48 H17        -1.8384    5.2171   -7.6733 H         1 <0>         0.1292
     49 H18        -2.4441    7.4073   -8.6179 H         1 <0>         0.1260
     50 H19        -1.2647    9.4373   -7.8798 H         1 <0>         0.1235
     51 H20         0.5232    9.2842   -6.1955 H         1 <0>         0.1254
     52 H21         1.1302    7.1005   -5.2368 H         1 <0>         0.1228
@<TRIPOS>BOND
     1    1    2 1
     2    1   32 1
     3    1   33 1
     4    1   34 1
     5    2    6 1
     6    2    3 1
     7    3   13 1
     8    3    4 2
     9    4    5 1
    10    4   10 1
    11    5    6 2
    12    5    7 1
    13    7    8 2
    14    7    9 am
    15    9   35 1
    16    9   36 1
    17   10   11 1
    18   10   37 1
    19   10   38 1
    20   11   12 1
    21   11   39 1
    22   11   40 1
    23   12   17 ar
    24   12   13 ar
    25   13   14 ar
    26   14   15 ar
    27   15   16 ar
    28   15   18 1
    29   16   17 ar
    30   17   41 1
    31   18   19 1
    32   18   42 1
    33   19   24 ar
    34   19   20 ar
    35   20   21 ar
    36   20   43 1
    37   21   22 ar
    38   21   44 1
    39   22   23 ar
    40   22   45 1
    41   23   24 ar
    42   23   46 1
    43   24   25 1
    44   25   26 1
    45   25   47 1
    46   26   31 ar
    47   26   27 ar
    48   27   28 ar
    49   27   48 1
    50   28   29 ar
    51   28   49 1
    52   29   30 ar
    53   29   50 1
    54   30   31 ar
    55   30   51 1
    56   31   52 1
@<TRIPOS>MOLECULE
CHEMBL1080893
   47    50     0     0     0
SMALL
USER_CHARGES

@<TRIPOS>ATOM
      1 C1         -0.0184    1.5028    0.0103 C.3       1 <0>        -0.0816
      2 C2          0.0021   -0.0041    0.0020 C.2       1 <0>         0.1153
      3 C3          0.0084   -0.8582   -1.1821 C.ar      1 <0>        -0.1807
      4 C4         -0.0018   -0.6078   -2.5570 C.ar      1 <0>         0.0297
      5 C5          0.0089   -1.6753   -3.4443 C.ar      1 <0>        -0.0716
      6 C6          0.0293   -2.9921   -2.9624 C.ar      1 <0>        -0.0428
      7 C7          0.0394   -3.2421   -1.6229 C.ar      1 <0>        -0.1338
      8 C8          0.0294   -2.1862   -0.7124 C.ar      1 <0>         0.1539
      9 N1          0.0351   -2.1193    0.6567 N.pl3     1 <0>        -0.5011
     10 H1          0.0493   -2.8811    1.2570 H         1 <0>         0.4457
     11 N2          0.0230   -0.7772    1.0497 N.2       1 <0>        -0.2433
     12 C9         -0.0017   -1.4233   -4.9011 C.2       1 <0>         0.1330
     13 N3         -0.0152   -0.2764   -5.5676 N.2       1 <0>        -0.2546
     14 N4         -0.0225   -0.2378   -6.8283 N.2       1 <0>        -0.3213
     15 C10        -0.0171   -1.3429   -7.5635 C.2       1 <0>         0.2895
     16 S1          0.0079   -2.5791   -6.2685 S.3       1 <0>        -0.0112
     17 N5         -0.0234   -1.4962   -8.9409 N.pl3     1 <0>        -0.6953
     18 C11        -0.0378   -0.3162   -9.8092 C.3       1 <0>         0.1103
     19 C12        -0.0422   -0.7604  -11.2732 C.3       1 <0>         0.0251
     20 H2          0.8922   -1.2739  -11.5000 H         1 <0>         0.1558
     21 C13        -0.1828    0.4656  -12.1777 C.3       1 <0>        -0.0949
     22 C14        -0.0641    0.0426  -13.6193 C.ar      1 <0>        -0.1169
     23 C15         1.1753    0.0140  -14.2314 C.ar      1 <0>        -0.0993
     24 C16         1.2851   -0.3738  -15.5535 C.ar      1 <0>        -0.0902
     25 C17         0.1554   -0.7330  -16.2647 C.ar      1 <0>        -0.0940
     26 C18        -1.0849   -0.7046  -15.6529 C.ar      1 <0>        -0.0284
     27 C19        -1.1933   -0.3221  -14.3275 C.ar      1 <0>        -0.1351
     28 Cl1        -2.5039   -1.1555  -16.5454 Cl        1 <0>        -0.0458
     29 N6         -1.1706   -1.6720  -11.5050 N.4       1 <0>        -0.6406
     30 H3          1.0042    1.8801    0.0026 H         1 <0>         0.0887
     31 H4         -0.5455    1.8639   -0.8728 H         1 <0>         0.0857
     32 H5         -0.5286    1.8543    0.9071 H         1 <0>         0.0848
     33 H6         -0.0183    0.4071   -2.9259 H         1 <0>         0.1458
     34 H7          0.0368   -3.8165   -3.6601 H         1 <0>         0.1326
     35 H8          0.0547   -4.2611   -1.2654 H         1 <0>         0.1393
     36 H9         -0.0183   -2.3846   -9.3301 H         1 <0>         0.4121
     37 H10        -0.9315    0.2737   -9.6057 H         1 <0>         0.1040
     38 H11         0.8484    0.2882   -9.6155 H         1 <0>         0.1212
     39 H12        -1.1561    0.9283  -12.0138 H         1 <0>         0.1086
     40 H13         0.6043    1.1822  -11.9433 H         1 <0>         0.1324
     41 H14         2.0581    0.2952  -13.6763 H         1 <0>         0.1388
     42 H15         2.2535   -0.3959  -16.0310 H         1 <0>         0.1440
     43 H16         0.2412   -1.0353  -17.2980 H         1 <0>         0.1441
     44 H17        -2.1609   -0.3040  -13.8480 H         1 <0>         0.1340
     45 H18        -1.1735   -1.9649  -12.4705 H         1 <0>         0.4386
     46 H19        -1.0779   -2.4805  -10.9085 H         1 <0>         0.4315
     47 H20        -2.0355   -1.1966  -11.2951 H         1 <0>         0.4379
@<TRIPOS>BOND
     1    1    2 1
     2    1   30 1
     3    1   31 1
     4    1   32 1
     5    2   11 2
     6    2    3 1
     7    3    8 ar
     8    3    4 ar
     9    4    5 ar
    10    4   33 1
    11    5    6 ar
    12    5   12 1
    13    6    7 ar
    14    6   34 1
    15    7    8 ar
    16    7   35 1
    17    8    9 1
    18    9   10 1
    19    9   11 1
    20   12   16 1
    21   12   13 2
    22   13   14 1
    23   14   15 2
    24   15   16 1
    25   15   17 1
    26   17   18 1
    27   17   36 1
    28   18   19 1
    29   18   37 1
    30   18   38 1
    31   19   20 1
    32   19   21 1
    33   19   29 1
    34   21   22 1
    35   21   39 1
    36   21   40 1
    37   22   27 ar
    38   22   23 ar
    39   23   24 ar
    40   23   41 1
    41   24   25 ar
    42   24   42 1
    43   25   26 ar
    44   25   43 1
    45   26   27 ar
    46   26   28 1
    47   27   44 1
    48   29   45 1
    49   29   46 1
    50   29   47 1
@<TRIPOS>MOLECULE
CHEMBL188587
   50    53     0     0     0
SMALL
USER_CHARGES

@<TRIPOS>ATOM
      1 C1         -0.1334    1.3509   -0.5117 C.3       1 <0>        -0.1416
      2 C2         -0.1932   -0.1708   -0.3649 C.3       1 <0>        -0.0495
      3 C3          0.5103   -0.8161   -1.5309 C.2       1 <0>         0.1685
      4 C4         -0.0854   -1.1813   -2.7527 C.2       1 <0>        -0.3344
      5 C5          0.9196   -1.7464   -3.5542 C.2       1 <0>         0.3610
      6 N1          0.6077   -2.1818   -4.7845 N.2       1 <0>        -0.5051
      7 C6         -0.6009   -2.0956   -5.2579 C.2       1 <0>         0.4381
      8 N2         -1.6345   -1.5651   -4.5565 N.am      1 <0>        -0.6470
      9 C7         -1.4377   -1.0934   -3.3031 C.2       1 <0>         0.5797
     10 O1         -2.3529   -0.6138   -2.6575 O.2       1 <0>        -0.5096
     11 C8         -0.8655   -2.6083   -6.6502 C.3       1 <0>        -0.0364
     12 C9          0.4339   -3.0328   -7.2845 C.ar      1 <0>        -0.0796
     13 C10         1.1804   -2.1192   -8.0058 C.ar      1 <0>        -0.0797
     14 C11         2.3717   -2.5051   -8.5884 C.ar      1 <0>        -0.1137
     15 C12         2.8198   -3.8121   -8.4488 C.ar      1 <0>         0.1465
     16 C13         2.0680   -4.7271   -7.7234 C.ar      1 <0>        -0.1429
     17 C14         0.8800   -4.3336   -7.1392 C.ar      1 <0>        -0.0767
     18 N3          4.0261   -4.2064   -9.0382 N.am      1 <0>        -0.6755
     19 C15         4.3963   -3.6891  -10.2264 C.2       1 <0>         0.5108
     20 O2          3.7282   -2.8189  -10.7436 O.2       1 <0>        -0.5251
     21 C16         5.6404   -4.1919  -10.9123 C.3       1 <0>        -0.1716
     22 N4          2.0658   -1.7114   -2.8214 N.pl3     1 <0>        -0.3153
     23 N5          1.7769   -1.1263   -1.5821 N.2       1 <0>        -0.2509
     24 C17         3.3210   -2.1760   -3.2376 C.ar      1 <0>         0.1696
     25 C18         3.8712   -1.7214   -4.4297 C.ar      1 <0>        -0.0007
     26 C19         5.1093   -2.1814   -4.8375 C.ar      1 <0>        -0.0874
     27 C20         5.8003   -3.0941   -4.0601 C.ar      1 <0>        -0.0072
     28 C21         5.2549   -3.5486   -2.8723 C.ar      1 <0>        -0.0907
     29 C22         4.0200   -3.0876   -2.4562 C.ar      1 <0>        -0.0035
     30 Cl1         3.3400   -3.6525   -0.9621 Cl        1 <0>        -0.0155
     31 Cl2         7.3544   -3.6704   -4.5762 Cl        1 <0>        -0.0326
     32 Cl3         3.0045   -0.5774   -5.4062 Cl        1 <0>        -0.0116
     33 H1          0.9076    1.6734   -0.5316 H         1 <0>         0.0567
     34 H2         -0.6229    1.6459   -1.4399 H         1 <0>         0.0577
     35 H3         -0.6422    1.8176    0.3317 H         1 <0>         0.0683
     36 H4          0.2963   -0.4658    0.5633 H         1 <0>         0.0855
     37 H5         -1.2342   -0.4933   -0.3450 H         1 <0>         0.0966
     38 H6         -1.5416   -3.4618   -6.6007 H         1 <0>         0.1171
     39 H7         -1.3206   -1.8185   -7.2478 H         1 <0>         0.1146
     40 H8          0.8313   -1.1029   -8.1140 H         1 <0>         0.1187
     41 H9          2.9539   -1.7913   -9.1523 H         1 <0>         0.1361
     42 H10         2.4137   -5.7443   -7.6134 H         1 <0>         0.1232
     43 H11         0.2969   -5.0436   -6.5715 H         1 <0>         0.1225
     44 H12         4.5958   -4.8521   -8.5916 H         1 <0>         0.4111
     45 H13         6.1042   -4.9665  -10.3016 H         1 <0>         0.0784
     46 H14         5.3766   -4.6058  -11.8856 H         1 <0>         0.0998
     47 H15         6.3402   -3.3670  -11.0459 H         1 <0>         0.0991
     48 H16         5.5375   -1.8285   -5.7640 H         1 <0>         0.1586
     49 H17         5.7965   -4.2609   -2.2677 H         1 <0>         0.1609
     50 H18        -2.5179   -1.5238   -4.9550 H         1 <0>         0.4243
@<TRIPOS>BOND
     1    1    2 1
     2    1   33 1
     3    1   34 1
     4    1   35 1
     5    2    3 1
     6    2   36 1
     7    2   37 1
     8    3   23 2
     9    3    4 1
    10    4    9 1
    11    4    5 2
    12    5    6 1
    13    5   22 1
    14    6    7 2
    15    7    8 1
    16    7   11 1
    17    8    9 am
    18    8   50 1
    19    9   10 2
    20   11   12 1
    21   11   38 1
    22   11   39 1
    23   12   17 ar
    24   12   13 ar
    25   13   14 ar
    26   13   40 1
    27   14   15 ar
    28   14   41 1
    29   15   16 ar
    30   15   18 1
    31   16   17 ar
    32   16   42 1
    33   17   43 1
    34   18   19 am
    35   18   44 1
    36   19   20 2
    37   19   21 1
    38   21   45 1
    39   21   46 1
    40   21   47 1
    41   22   23 1
    42   22   24 1
    43   24   29 ar
    44   24   25 ar
    45   25   26 ar
    46   25   32 1
    47   26   27 ar
    48   26   48 1
    49   27   28 ar
    50   27   31 1
    51   28   29 ar
    52   28   49 1
    53   29   30 1
@<TRIPOS>MOLECULE
CHEMBL188587
   49    52     0     0     0
SMALL
USER_CHARGES

@<TRIPOS>ATOM
      1 C1          0.6924    1.5629    0.0860 C.3       1 <0>        -0.1340
      2 C2          0.8884    0.0458    0.0595 C.3       1 <0>        -0.0405
      3 C3          1.4488   -0.3651   -1.2778 C.2       1 <0>         0.1688
      4 C4          0.6915   -0.7150   -2.4175 C.ar      1 <0>        -0.3577
      5 C5          1.6082   -1.0291   -3.4413 C.ar      1 <0>         0.3786
      6 N1          1.1397   -1.3953   -4.6320 N.ar      1 <0>        -0.6072
      7 C6         -0.1553   -1.4632   -4.8506 C.ar      1 <0>         0.3970
      8 N2         -1.0506   -1.1777   -3.9214 N.ar      1 <0>        -0.6251
      9 C7         -0.6821   -0.8033   -2.7032 C.ar      1 <0>         0.5013
     10 O1         -1.6066   -0.5133   -1.7579 O.3       1 <0>        -0.6693
     11 C8         -0.6376   -1.8829   -6.2153 C.3       1 <0>        -0.0047
     12 C9         -0.7975   -3.3809   -6.2528 C.ar      1 <0>        -0.0776
     13 C10         0.2664   -4.1791   -6.6313 C.ar      1 <0>        -0.0833
     14 C11         0.1230   -5.5523   -6.6667 C.ar      1 <0>        -0.1245
     15 C12        -1.0911   -6.1313   -6.3213 C.ar      1 <0>         0.1310
     16 C13        -2.1574   -5.3270   -5.9412 C.ar      1 <0>        -0.1482
     17 C14        -2.0062   -3.9547   -5.9032 C.ar      1 <0>        -0.0805
     18 N3         -1.2397   -7.5222   -6.3565 N.am      1 <0>        -0.6730
     19 C15        -0.1929   -8.3194   -6.0651 C.2       1 <0>         0.5045
     20 O2          0.8508   -7.8342   -5.6825 O.2       1 <0>        -0.5230
     21 C16        -0.3191   -9.8137   -6.2146 C.3       1 <0>        -0.1700
     22 N4          2.8555   -0.8656   -2.9094 N.pl3     1 <0>        -0.3607
     23 N5          2.7135   -0.4518   -1.5788 N.2       1 <0>        -0.2900
     24 C17         4.0686   -1.0716   -3.5808 C.ar      1 <0>         0.2127
     25 C18         4.3140   -0.4286   -4.7877 C.ar      1 <0>        -0.0159
     26 C19         5.5112   -0.6337   -5.4474 C.ar      1 <0>        -0.0878
     27 C20         6.4648   -1.4784   -4.9070 C.ar      1 <0>        -0.0250
     28 C21         6.2232   -2.1202   -3.7051 C.ar      1 <0>        -0.0906
     29 C22         5.0302   -1.9146   -3.0379 C.ar      1 <0>        -0.0181
     30 Cl1         4.7310   -2.7146   -1.5265 Cl        1 <0>        -0.0246
     31 Cl2         7.9669   -1.7339   -5.7389 Cl        1 <0>        -0.0515
     32 Cl3         3.1181    0.6309   -5.4667 Cl        1 <0>        -0.0156
     33 H1          1.6514    2.0560   -0.0731 H         1 <0>         0.0476
     34 H2         -0.0009    1.8535   -0.7033 H         1 <0>         0.0606
     35 H3          0.2870    1.8601    1.0532 H         1 <0>         0.0564
     36 H4          1.5817   -0.2449    0.8488 H         1 <0>         0.0676
     37 H5         -0.0706   -0.4473    0.2185 H         1 <0>         0.0965
     38 H6         -1.5973   -1.4097   -6.4229 H         1 <0>         0.0926
     39 H7          0.0891   -1.5761   -6.9677 H         1 <0>         0.0889
     40 H8          1.2103   -3.7282   -6.8998 H         1 <0>         0.1272
     41 H9          0.9541   -6.1751   -6.9630 H         1 <0>         0.1287
     42 H10        -3.1030   -5.7742   -5.6724 H         1 <0>         0.1214
     43 H11        -2.8338   -3.3288   -5.6038 H         1 <0>         0.1320
     44 H12        -2.0963   -7.9126   -6.5908 H         1 <0>         0.4082
     45 H13        -0.0254  -10.1040   -7.2234 H         1 <0>         0.0957
     46 H14         0.3297  -10.3073   -5.4911 H         1 <0>         0.0950
     47 H15        -1.3528  -10.1105   -6.0375 H         1 <0>         0.0805
     48 H16         5.7024   -0.1344   -6.3858 H         1 <0>         0.1533
     49 H17         6.9692   -2.7792   -3.2860 H         1 <0>         0.1525
@<TRIPOS>BOND
     1    1    2 1
     2    1   33 1
     3    1   34 1
     4    1   35 1
     5    2    3 1
     6    2   36 1
     7    2   37 1
     8    3   23 2
     9    3    4 1
    10    4    9 ar
    11    4    5 ar
    12    5    6 ar
    13    5   22 1
    14    6    7 ar
    15    7    8 ar
    16    7   11 1
    17    8    9 ar
    18    9   10 1
    19   11   12 1
    20   11   38 1
    21   11   39 1
    22   12   17 ar
    23   12   13 ar
    24   13   14 ar
    25   13   40 1
    26   14   15 ar
    27   14   41 1
    28   15   16 ar
    29   15   18 1
    30   16   17 ar
    31   16   42 1
    32   17   43 1
    33   18   19 am
    34   18   44 1
    35   19   20 2
    36   19   21 1
    37   21   45 1
    38   21   46 1
    39   21   47 1
    40   22   23 1
    41   22   24 1
    42   24   29 ar
    43   24   25 ar
    44   25   26 ar
    45   25   32 1
    46   26   27 ar
    47   26   48 1
    48   27   28 ar
    49   27   31 1
    50   28   29 ar
    51   28   49 1
    52   29   30 1
@<TRIPOS>MOLECULE
CHEMBL312292
   65    71     0     0     0
SMALL
USER_CHARGES

@<TRIPOS>ATOM
      1 C1         -0.0178    1.4617    0.0101 C.3       1 <0>         0.0653
      2 N1          0.0021   -0.0041    0.0020 N.pl3     1 <0>        -0.4470
      3 C2          0.0249   -0.7439   -1.1505 C.2       1 <0>         0.0503
      4 C3          0.1836   -2.0410   -0.8484 C.2       1 <0>        -0.1852
      5 C4          0.2475   -2.1280    0.6100 C.ar      1 <0>        -0.1134
      6 C5          0.0236   -0.8274    1.0951 C.ar      1 <0>         0.0990
      7 C6         -0.1568   -0.6670    2.4822 C.ar      1 <0>         0.0561
      8 C7          0.3262   -1.6905    3.3445 C.ar      1 <0>        -0.0208
      9 C8          0.5952   -2.9707    2.8272 C.ar      1 <0>        -0.1547
     10 C9          0.5131   -3.1909    1.4927 C.ar      1 <0>        -0.0312
     11 C10         0.5390   -1.4128    4.7118 C.ar      1 <0>         0.1766
     12 C11         0.0582   -0.2100    5.2473 C.ar      1 <0>        -0.0604
     13 C12         0.4360   -0.2076    6.6705 C.ar      1 <0>        -0.0909
     14 C13         0.2517    0.7038    7.7086 C.ar      1 <0>        -0.0370
     15 C14         0.7266    0.4107    8.9683 C.ar      1 <0>        -0.1423
     16 C15         1.3859   -0.7862    9.2033 C.ar      1 <0>        -0.0645
     17 C16         1.5762   -1.6963    8.1856 C.ar      1 <0>        -0.1286
     18 C17         1.1040   -1.4198    6.9060 C.ar      1 <0>         0.1436
     19 N2          1.1470   -2.1262    5.7180 N.pl3     1 <0>        -0.5957
     20 H1          1.5486   -3.0028    5.6056 H         1 <0>         0.4171
     21 C18         2.2959   -2.9904    8.4638 C.3       1 <0>        -0.0972
     22 C19         3.7769   -2.8361    8.1120 C.3       1 <0>        -0.0102
     23 N3          4.4786   -4.0979    8.3832 N.4       1 <0>        -0.3855
     24 C20         4.4401   -4.3776    9.8236 C.3       1 <0>        -0.0118
     25 C21         5.0987   -5.7305   10.1021 C.3       1 <0>        -0.1284
     26 C22         6.5539   -5.6911    9.6269 C.3       1 <0>        -0.1239
     27 C23         6.5854   -5.3254    8.1401 C.3       1 <0>        -0.1399
     28 C24         5.8717   -3.9875    7.9343 C.3       1 <0>        -0.0039
     29 C25         7.1860   -7.0445    9.8265 C.2       1 <0>         0.5198
     30 O1          6.5376   -7.9524   10.3019 O.2       1 <0>        -0.5281
     31 N4          8.4719   -7.2459    9.4765 N.am      1 <0>        -0.8495
     32 C26        -0.6531    0.6860    4.4365 C.ar      1 <0>        -0.0736
     33 C27        -0.8250    0.4244    3.0670 C.ar      1 <0>        -0.1541
     34 C28        -1.8171    1.4133    2.6133 C.2       1 <0>         0.5781
     35 O2         -2.4322    1.3933    1.5661 O.2       1 <0>        -0.4498
     36 N5         -1.9715    2.3444    3.5739 N.am      1 <0>        -0.6833
     37 C29        -1.3081    1.9866    4.6870 C.2       1 <0>         0.5781
     38 O3         -1.2559    2.6241    5.7186 O.2       1 <0>        -0.4529
     39 H2          1.0048    1.8390    0.0023 H         1 <0>         0.0771
     40 H3         -0.5450    1.8228   -0.8730 H         1 <0>         0.0932
     41 H4         -0.5280    1.8133    0.9069 H         1 <0>         0.0793
     42 H5         -0.0719   -0.3393   -2.1462 H         1 <0>         0.1780
     43 H6          0.2513   -2.8635   -1.5457 H         1 <0>         0.1562
     44 H7          0.8717   -3.7763    3.4904 H         1 <0>         0.1263
     45 H8          0.6521   -4.1885    1.1039 H         1 <0>         0.1335
     46 H9         -0.2632    1.6356    7.5280 H         1 <0>         0.1455
     47 H10         0.5837    1.1155    9.7737 H         1 <0>         0.1371
     48 H11         1.7528   -1.0080   10.1944 H         1 <0>         0.1337
     49 H12         2.1976   -3.2410    9.5200 H         1 <0>         0.1029
     50 H13         1.8598   -3.7858    7.8594 H         1 <0>         0.0882
     51 H14         3.8753   -2.5855    7.0558 H         1 <0>         0.1283
     52 H15         4.2130   -2.0407    8.7163 H         1 <0>         0.1371
     53 H16         4.9773   -3.5952   10.3597 H         1 <0>         0.1330
     54 H17         3.4039   -4.4021   10.1609 H         1 <0>         0.1381
     55 H18         5.0707   -5.9355   11.1723 H         1 <0>         0.1211
     56 H19         4.5620   -6.5136    9.5667 H         1 <0>         0.0980
     57 H20         7.1037   -4.9429   10.1980 H         1 <0>         0.1178
     58 H21         7.6201   -5.2409    7.8079 H         1 <0>         0.1175
     59 H22         6.0796   -6.1002    7.5640 H         1 <0>         0.0959
     60 H23         5.8925   -3.7241    6.8768 H         1 <0>         0.1352
     61 H24         6.3785   -3.2135    8.5107 H         1 <0>         0.1336
     62 H25         8.9905   -6.5197    9.0962 H         1 <0>         0.4032
     63 H26         8.8787   -8.1170    9.6050 H         1 <0>         0.4121
     64 H27        -2.4894    3.1574    3.4775 H         1 <0>         0.4351
     65 H28         4.0241   -4.8482    7.8847 H         1 <0>         0.4225
@<TRIPOS>BOND
     1    1    2 1
     2    1   39 1
     3    1   40 1
     4    1   41 1
     5    2    6 1
     6    2    3 1
     7    3    4 2
     8    3   42 1
     9    4    5 1
    10    4   43 1
    11    5   10 ar
    12    5    6 ar
    13    6    7 ar
    14    7   33 ar
    15    7    8 ar
    16    8    9 ar
    17    8   11 ar
    18    9   10 ar
    19    9   44 1
    20   10   45 1
    21   11   19 1
    22   11   12 ar
    23   12   13 1
    24   12   32 ar
    25   13   18 ar
    26   13   14 ar
    27   14   15 ar
    28   14   46 1
    29   15   16 ar
    30   15   47 1
    31   16   17 ar
    32   16   48 1
    33   17   18 ar
    34   17   21 1
    35   18   19 1
    36   19   20 1
    37   21   22 1
    38   21   49 1
    39   21   50 1
    40   22   23 1
    41   22   51 1
    42   22   52 1
    43   23   28 1
    44   23   24 1
    45   23   65 1
    46   24   25 1
    47   24   53 1
    48   24   54 1
    49   25   26 1
    50   25   55 1
    51   25   56 1
    52   26   27 1
    53   26   29 1
    54   26   57 1
    55   27   28 1
    56   27   58 1
    57   27   59 1
    58   28   60 1
    59   28   61 1
    60   29   30 2
    61   29   31 am
    62   31   62 1
    63   31   63 1
    64   32   37 1
    65   32   33 ar
    66   33   34 1
    67   34   35 2
    68   34   36 am
    69   36   37 am
    70   36   64 1
    71   37   38 2
@<TRIPOS>MOLECULE
CHEMBL73764
   65    71     0     0     0
SMALL
USER_CHARGES

@<TRIPOS>ATOM
      1 C1         -0.0178    1.4617    0.0101 C.3       1 <0>         0.0652
      2 N1          0.0021   -0.0041    0.0020 N.pl3     1 <0>        -0.4468
      3 C2          0.0249   -0.7439   -1.1505 C.2       1 <0>         0.0504
      4 C3          0.1836   -2.0410   -0.8484 C.2       1 <0>        -0.1852
      5 C4          0.2475   -2.1280    0.6100 C.ar      1 <0>        -0.1135
      6 C5          0.0236   -0.8274    1.0951 C.ar      1 <0>         0.0992
      7 C6         -0.1568   -0.6670    2.4822 C.ar      1 <0>         0.0561
      8 C7          0.3262   -1.6905    3.3445 C.ar      1 <0>        -0.0207
      9 C8          0.5952   -2.9707    2.8272 C.ar      1 <0>        -0.1550
     10 C9          0.5131   -3.1909    1.4927 C.ar      1 <0>        -0.0309
     11 C10         0.5390   -1.4128    4.7118 C.ar      1 <0>         0.1762
     12 C11         0.0582   -0.2100    5.2473 C.ar      1 <0>        -0.0601
     13 C12         0.4360   -0.2076    6.6705 C.ar      1 <0>        -0.0911
     14 C13         0.2517    0.7038    7.7086 C.ar      1 <0>        -0.0365
     15 C14         0.7266    0.4107    8.9683 C.ar      1 <0>        -0.1423
     16 C15         1.3859   -0.7862    9.2033 C.ar      1 <0>        -0.0640
     17 C16         1.5762   -1.6963    8.1856 C.ar      1 <0>        -0.1300
     18 C17         1.1040   -1.4198    6.9060 C.ar      1 <0>         0.1435
     19 N2          1.1470   -2.1262    5.7180 N.pl3     1 <0>        -0.5957
     20 H1          1.5486   -3.0028    5.6056 H         1 <0>         0.4167
     21 C18         2.2959   -2.9904    8.4638 C.3       1 <0>        -0.0958
     22 C19         3.7769   -2.8361    8.1120 C.3       1 <0>        -0.0146
     23 N3          4.4786   -4.0979    8.3832 N.4       1 <0>        -0.5075
     24 C20         5.9006   -3.9498    8.0454 C.3       1 <0>         0.0227
     25 C21         6.0459   -3.7214    6.5396 C.3       1 <0>        -0.1378
     26 C22         7.5269   -3.5672    6.1877 C.3       1 <0>        -0.1140
     27 C23         8.2807   -4.8377    6.5860 C.3       1 <0>         0.1000
     28 C24         8.1353   -5.0661    8.0919 C.3       1 <0>        -0.1530
     29 C25         6.6543   -5.2203    8.4437 C.3       1 <0>        -0.1374
     30 O1          9.6639   -4.6936    6.2574 O.3       1 <0>        -0.5603
     31 C26        -0.6531    0.6860    4.4365 C.ar      1 <0>        -0.0737
     32 C27        -0.8250    0.4244    3.0670 C.ar      1 <0>        -0.1537
     33 C28        -1.8171    1.4133    2.6133 C.2       1 <0>         0.5781
     34 O2         -2.4322    1.3933    1.5661 O.2       1 <0>        -0.4497
     35 N4         -1.9715    2.3444    3.5739 N.am      1 <0>        -0.6832
     36 C29        -1.3081    1.9866    4.6870 C.2       1 <0>         0.5781
     37 O3         -1.2559    2.6241    5.7186 O.2       1 <0>        -0.4528
     38 H2          1.0048    1.8390    0.0023 H         1 <0>         0.0772
     39 H3         -0.5450    1.8228   -0.8730 H         1 <0>         0.0933
     40 H4         -0.5280    1.8133    0.9069 H         1 <0>         0.0793
     41 H5         -0.0719   -0.3393   -2.1462 H         1 <0>         0.1781
     42 H6          0.2513   -2.8635   -1.5457 H         1 <0>         0.1562
     43 H7          0.8717   -3.7763    3.4904 H         1 <0>         0.1260
     44 H8          0.6521   -4.1885    1.1039 H         1 <0>         0.1334
     45 H9         -0.2632    1.6356    7.5280 H         1 <0>         0.1457
     46 H10         0.5837    1.1155    9.7737 H         1 <0>         0.1373
     47 H11         1.7528   -1.0080   10.1944 H         1 <0>         0.1341
     48 H12         2.1976   -3.2410    9.5200 H         1 <0>         0.1032
     49 H13         1.8598   -3.7858    7.8594 H         1 <0>         0.0881
     50 H14         3.8753   -2.5855    7.0558 H         1 <0>         0.1301
     51 H15         4.2130   -2.0407    8.7163 H         1 <0>         0.1390
     52 H16         4.3876   -4.3299    9.3609 H         1 <0>         0.4301
     53 H17         6.3151   -3.0975    8.5839 H         1 <0>         0.1428
     54 H18         5.6314   -4.5737    6.0011 H         1 <0>         0.0900
     55 H19         5.5089   -2.8163    6.2558 H         1 <0>         0.0935
     56 H20         7.6305   -3.4045    5.1149 H         1 <0>         0.0931
     57 H21         7.9414   -2.7149    6.7262 H         1 <0>         0.0835
     58 H22         7.8662   -5.6899    6.0476 H         1 <0>         0.0614
     59 H23         8.6723   -5.9712    8.3756 H         1 <0>         0.0886
     60 H24         8.5498   -4.2138    8.6303 H         1 <0>         0.0845
     61 H25         6.5508   -5.3830    9.5165 H         1 <0>         0.0928
     62 H26         6.2398   -6.0726    7.9052 H         1 <0>         0.0893
     63 H27        10.2040   -5.4635    6.4827 H         1 <0>         0.3887
     64 H28        -2.4894    3.1574    3.4775 H         1 <0>         0.4352
     65 H29         4.0749   -4.8342    7.8238 H         1 <0>         0.4250
@<TRIPOS>BOND
     1    1    2 1
     2    1   38 1
     3    1   39 1
     4    1   40 1
     5    2    6 1
     6    2    3 1
     7    3    4 2
     8    3   41 1
     9    4    5 1
    10    4   42 1
    11    5   10 ar
    12    5    6 ar
    13    6    7 ar
    14    7   32 ar
    15    7    8 ar
    16    8    9 ar
    17    8   11 ar
    18    9   10 ar
    19    9   43 1
    20   10   44 1
    21   11   19 1
    22   11   12 ar
    23   12   13 1
    24   12   31 ar
    25   13   18 ar
    26   13   14 ar
    27   14   15 ar
    28   14   45 1
    29   15   16 ar
    30   15   46 1
    31   16   17 ar
    32   16   47 1
    33   17   18 ar
    34   17   21 1
    35   18   19 1
    36   19   20 1
    37   21   22 1
    38   21   48 1
    39   21   49 1
    40   22   23 1
    41   22   50 1
    42   22   51 1
    43   23   24 1
    44   23   52 1
    45   23   65 1
    46   24   29 1
    47   24   25 1
    48   24   53 1
    49   25   26 1
    50   25   54 1
    51   25   55 1
    52   26   27 1
    53   26   56 1
    54   26   57 1
    55   27   28 1
    56   27   30 1
    57   27   58 1
    58   28   29 1
    59   28   59 1
    60   28   60 1
    61   29   61 1
    62   29   62 1
    63   30   63 1
    64   31   36 1
    65   31   32 ar
    66   32   33 1
    67   33   34 2
    68   33   35 am
    69   35   36 am
    70   35   64 1
    71   36   37 2
@<TRIPOS>MOLECULE
CHEMBL367363
   31    34     0     0     0
SMALL
USER_CHARGES

@<TRIPOS>ATOM
      1 C1          0.4560    0.4696   -1.1420 C.ar      1 <0>        -0.1511
      2 C2          1.6765    1.1223   -1.2019 C.ar      1 <0>        -0.0553
      3 C3          2.3686    1.3410   -0.0134 C.ar      1 <0>         0.0786
      4 C4          1.8134    0.8995    1.1808 C.ar      1 <0>         0.1055
      5 N1          0.6491    0.2823    1.1929 N.ar      1 <0>        -0.4592
      6 C5         -0.0312    0.0599    0.0850 C.ar      1 <0>         0.1082
      7 N2          3.6062    1.9959   -0.0221 N.pl3     1 <0>        -0.2514
      8 C6          4.7021    1.5856    0.6871 C.ar      1 <0>         0.1378
      9 C7          5.7211    2.5069    0.4025 C.ar      1 <0>        -0.1354
     10 C8          6.9871    2.3670    0.9803 C.ar      1 <0>         0.0048
     11 C9          7.2462    1.3331    1.8266 C.ar      1 <0>        -0.1462
     12 C10         6.2514    0.3977    2.1305 C.ar      1 <0>         0.1648
     13 C11         4.9716    0.5165    1.5634 C.ar      1 <0>        -0.1794
     14 C12         4.2004   -0.5611    2.0543 C.2       1 <0>         0.0721
     15 N3          4.9423   -1.2756    2.8513 N.2       1 <0>        -0.2458
     16 N4          6.2237   -0.7171    2.9279 N.pl3     1 <0>        -0.4867
     17 H1          6.9634   -1.0594    3.4538 H         1 <0>         0.4477
     18 C13         5.1001    3.4633   -0.5237 C.2       1 <0>         0.0259
     19 N5          3.8604    3.0555   -0.7008 N.2       1 <0>        -0.2225
     20 C14         5.7387    4.6416   -1.1365 C.2       1 <0>         0.6138
     21 O1          6.9003    4.9020   -0.8877 O.2       1 <0>        -0.5254
     22 N6          5.0354    5.4307   -1.9727 N.am      1 <0>        -0.8383
     23 H2         -0.1105    0.2869   -2.0432 H         1 <0>         0.1512
     24 H3          2.0814    1.4531   -2.1469 H         1 <0>         0.1483
     25 H4          2.3413    1.0632    2.1086 H         1 <0>         0.1658
     26 H5         -0.9822   -0.4493    0.1373 H         1 <0>         0.1702
     27 H6          7.7633    3.0829    0.7533 H         1 <0>         0.1525
     28 H7          8.2275    1.2339    2.2668 H         1 <0>         0.1410
     29 H8          3.1674   -0.7592    1.8093 H         1 <0>         0.1895
     30 H9          4.1089    5.2230   -2.1711 H         1 <0>         0.4084
     31 H10         5.4557    6.2063   -2.3760 H         1 <0>         0.4108
@<TRIPOS>BOND
     1    1    6 ar
     2    1    2 ar
     3    1   23 1
     4    2    3 ar
     5    2   24 1
     6    3    4 ar
     7    3    7 1
     8    4    5 ar
     9    4   25 1
    10    5    6 ar
    11    6   26 1
    12    7   19 1
    13    7    8 1
    14    8   13 ar
    15    8    9 ar
    16    9   10 ar
    17    9   18 1
    18   10   11 ar
    19   10   27 1
    20   11   12 ar
    21   11   28 1
    22   12   16 1
    23   12   13 ar
    24   13   14 1
    25   14   15 2
    26   14   29 1
    27   15   16 1
    28   16   17 1
    29   18   19 2
    30   18   20 1
    31   20   21 2
    32   20   22 am
    33   22   30 1
    34   22   31 1
@<TRIPOS>MOLECULE
CHEMBL367363
   31    34     0     0     0
SMALL
USER_CHARGES

@<TRIPOS>ATOM
      1 C1         -0.0167    1.3781    0.0096 C.ar      1 <0>        -0.1444
      2 C2          1.1829    2.0712    0.0019 C.ar      1 <0>        -0.0664
      3 C3          2.3686    1.3410   -0.0134 C.ar      1 <0>         0.1052
      4 C4          2.3055   -0.0465   -0.0202 C.ar      1 <0>         0.0773
      5 N1          1.1426   -0.6664   -0.0124 N.ar      1 <0>        -0.4573
      6 C5          0.0021   -0.0041    0.0020 C.ar      1 <0>         0.0969
      7 N2          3.6063    1.9959   -0.0221 N.pl3     1 <0>        -0.3158
      8 C6          4.7400    1.5527    0.5997 C.ar      1 <0>         0.1878
      9 C7          5.7468    2.4860    0.3507 C.ar      1 <0>        -0.1535
     10 C8          7.0503    2.3141    0.8622 C.ar      1 <0>        -0.0167
     11 C9          7.3976    1.2492    1.6135 C.ar      1 <0>        -0.1081
     12 C10         6.4126    0.2194    1.9275 C.ar      1 <0>         0.1398
     13 C11         5.0455    0.3737    1.4073 C.ar      1 <0>        -0.2062
     14 C12         4.3332   -0.7201    1.8461 C.2       1 <0>         0.0894
     15 N3          5.1622   -1.4889    2.5701 N.pl3     1 <0>        -0.4346
     16 N4          6.4341   -0.9060    2.6137 N.2       1 <0>        -0.2804
     17 H1          4.9166   -2.3238    2.9986 H         1 <0>         0.4497
     18 C13         5.1358    3.5370   -0.4746 C.2       1 <0>         0.0705
     19 N5          3.8781    3.2030   -0.6732 N.2       1 <0>        -0.2307
     20 C14         5.8098    4.7418   -0.9913 C.2       1 <0>         0.6082
     21 O1          6.9841    4.9360   -0.7417 O.2       1 <0>        -0.5164
     22 N6          5.1247    5.6283   -1.7405 N.am      1 <0>        -0.8361
     23 H2         -0.9556    1.9116    0.0259 H         1 <0>         0.1502
     24 H3          1.1981    3.1511    0.0072 H         1 <0>         0.1489
     25 H4          3.2186   -0.6231   -0.0324 H         1 <0>         0.1677
     26 H5         -0.9302   -0.5493    0.0080 H         1 <0>         0.1688
     27 H6          7.7976    3.0626    0.6437 H         1 <0>         0.1484
     28 H7          8.4081    1.1582    1.9836 H         1 <0>         0.1437
     29 H8          3.2920   -0.9234    1.6438 H         1 <0>         0.1929
     30 H9          4.1881    5.4735   -1.9397 H         1 <0>         0.4089
     31 H10         5.5682    6.4211   -2.0805 H         1 <0>         0.4124
@<TRIPOS>BOND
     1    1    6 ar
     2    1    2 ar
     3    1   23 1
     4    2    3 ar
     5    2   24 1
     6    3    4 ar
     7    3    7 1
     8    4    5 ar
     9    4   25 1
    10    5    6 ar
    11    6   26 1
    12    7   19 1
    13    7    8 1
    14    8   13 ar
    15    8    9 ar
    16    9   10 ar
    17    9   18 1
    18   10   11 ar
    19   10   27 1
    20   11   12 ar
    21   11   28 1
    22   12   13 ar
    23   12   16 2
    24   13   14 2
    25   14   29 1
    26   14   15 1
    27   15   17 1
    28   15   16 1
    29   18   19 2
    30   18   20 1
    31   20   21 2
    32   20   22 am
    33   22   30 1
    34   22   31 1
@<TRIPOS>MOLECULE
CHEMBL427909
   46    50     0     0     0
SMALL
USER_CHARGES

@<TRIPOS>ATOM
      1 C1         -0.0167    1.3791    0.0096 C.ar      1 <0>        -0.1143
      2 C2          1.1686    2.0923    0.0021 C.ar      1 <0>        -0.1170
      3 C3          2.3774    1.4267   -0.0135 C.ar      1 <0>        -0.1112
      4 C4          2.4025    0.0330   -0.0212 C.ar      1 <0>        -0.0386
      5 C5          1.2049   -0.6804   -0.0131 C.ar      1 <0>        -0.0947
      6 C6          0.0021   -0.0041    0.0020 C.ar      1 <0>        -0.1162
      7 C7          3.6979   -0.6879   -0.0384 C.ar      1 <0>        -0.1319
      8 C8          4.6803   -0.3483   -0.9611 C.ar      1 <0>         0.0225
      9 C9          5.8833   -1.0596   -0.9342 C.ar      1 <0>        -0.2279
     10 C10         6.0644   -2.0873    0.0147 C.ar      1 <0>         0.3413
     11 N1          7.3177   -2.5971   -0.1952 N.pl3     1 <0>        -0.4848
     12 H1          7.7210   -3.3198    0.3106 H         1 <0>         0.4495
     13 N2          7.9252   -1.9134   -1.2524 N.2       1 <0>        -0.2185
     14 C11         7.1171   -0.9987   -1.7185 C.2       1 <0>         0.3291
     15 N3          7.3829   -0.1210   -2.7749 N.am      1 <0>        -0.6310
     16 C12         8.5685   -0.1746   -3.4135 C.2       1 <0>         0.5372
     17 O1          9.4051   -0.9839   -3.0723 O.2       1 <0>        -0.4833
     18 C13         8.8549    0.7709   -4.5515 C.3       1 <0>        -0.1965
     19 C14         8.9597    0.1742   -5.9565 C.3       1 <0>        -0.1494
     20 C15        10.2189    0.6602   -5.2358 C.3       1 <0>        -0.1431
     21 N4          5.0997   -2.3783    0.8778 N.ar      1 <0>        -0.4945
     22 C16         3.9515   -1.7224    0.8842 C.ar      1 <0>         0.2629
     23 C17         2.9119   -2.0850    1.8743 C.ar      1 <0>        -0.0708
     24 C18         2.0841   -1.0990    2.4119 C.ar      1 <0>        -0.0627
     25 C19         1.1171   -1.4402    3.3331 C.ar      1 <0>        -0.1504
     26 C20         0.9666   -2.7636    3.7265 C.ar      1 <0>         0.1261
     27 C21         1.7892   -3.7476    3.1937 C.ar      1 <0>        -0.1545
     28 C22         2.7542   -3.4144    2.2675 C.ar      1 <0>        -0.0567
     29 O2          0.0130   -3.0963    4.6347 O.3       1 <0>        -0.4988
     30 H2         -0.9603    1.9042    0.0260 H         1 <0>         0.1232
     31 H3          1.1479    3.1721    0.0082 H         1 <0>         0.1251
     32 H4          3.3021    1.9845   -0.0200 H         1 <0>         0.1240
     33 H5          1.2184   -1.7603   -0.0194 H         1 <0>         0.1227
     34 H6         -0.9264   -0.5557    0.0083 H         1 <0>         0.1240
     35 H7          4.5187    0.4425   -1.6788 H         1 <0>         0.1441
     36 H8          6.7139    0.5262   -3.0478 H         1 <0>         0.4241
     37 H9          8.4180    1.7651   -4.4580 H         1 <0>         0.1307
     38 H10         8.8216   -0.9023   -6.0576 H         1 <0>         0.1015
     39 H11         8.5916    0.7757   -6.7875 H         1 <0>         0.1096
     40 H12        10.6791    1.5815   -5.5928 H         1 <0>         0.1083
     41 H13        10.9091   -0.0966   -4.8629 H         1 <0>         0.1103
     42 H14         2.2010   -0.0695    2.1070 H         1 <0>         0.1364
     43 H15         0.4759   -0.6774    3.7496 H         1 <0>         0.1329
     44 H16         1.6700   -4.7757    3.5023 H         1 <0>         0.1333
     45 H17         3.3906   -4.1807    1.8502 H         1 <0>         0.1341
     46 H18        -0.8419   -3.3215    4.2429 H         1 <0>         0.3938
@<TRIPOS>BOND
     1    1    6 ar
     2    1    2 ar
     3    1   30 1
     4    2    3 ar
     5    2   31 1
     6    3    4 ar
     7    3   32 1
     8    4    5 ar
     9    4    7 1
    10    5    6 ar
    11    5   33 1
    12    6   34 1
    13    7   22 ar
    14    7    8 ar
    15    8    9 ar
    16    8   35 1
    17    9   14 1
    18    9   10 ar
    19   10   11 1
    20   10   21 ar
    21   11   12 1
    22   11   13 1
    23   13   14 2
    24   14   15 1
    25   15   16 am
    26   15   36 1
    27   16   17 2
    28   16   18 1
    29   18   20 1
    30   18   19 1
    31   18   37 1
    32   19   20 1
    33   19   38 1
    34   19   39 1
    35   20   40 1
    36   20   41 1
    37   21   22 ar
    38   22   23 1
    39   23   28 ar
    40   23   24 ar
    41   24   25 ar
    42   24   42 1
    43   25   26 ar
    44   25   43 1
    45   26   27 ar
    46   26   29 1
    47   27   28 ar
    48   27   44 1
    49   28   45 1
    50   29   46 1
@<TRIPOS>MOLECULE
CHEMBL442186
   45    49     0     0     0
SMALL
USER_CHARGES

@<TRIPOS>ATOM
      1 C1         -0.0163    1.3486    0.0095 C.2       1 <0>        -0.2063
      2 C2          1.3125    1.7938   -0.0008 C.2       1 <0>        -0.1506
      3 C3          2.1119    0.6861   -0.0144 C.2       1 <0>         0.0034
      4 N1          1.2973   -0.4196   -0.0126 N.pl3     1 <0>        -0.5287
      5 H1          1.5957   -1.3425   -0.0204 H         1 <0>         0.4207
      6 C4          0.0021   -0.0041    0.0020 C.2       1 <0>         0.0270
      7 C5          3.5848    0.6790   -0.0290 C.ar      1 <0>         0.1293
      8 C6          4.2804    1.6140   -0.8076 C.ar      1 <0>        -0.1188
      9 C7          5.6666    1.6590   -0.8633 C.ar      1 <0>        -0.0354
     10 C8          6.4222    0.6898   -0.0756 C.ar      1 <0>        -0.0387
     11 C9          7.8190    0.5984   -0.0177 C.ar      1 <0>         0.0954
     12 C10         8.3807   -0.3816    0.7816 C.ar      1 <0>        -0.1105
     13 C11         7.6208   -1.2779    1.5276 C.ar      1 <0>        -0.0785
     14 C12         6.2386   -1.2125    1.4903 C.ar      1 <0>         0.1477
     15 C13         5.6901   -0.2217    0.6835 C.ar      1 <0>        -0.0699
     16 C14         4.2876   -0.2605    0.7415 C.ar      1 <0>        -0.1645
     17 C15         3.9948   -1.3574    1.6557 C.2       1 <0>         0.5735
     18 O1          2.8842   -1.7365    1.9848 O.2       1 <0>        -0.4822
     19 N2          5.1739   -1.8952    2.0641 N.am      1 <0>        -0.6470
     20 F1          8.5981    1.4456   -0.7250 F         1 <0>        -0.1197
     21 S1          6.4927    2.8547   -1.8595 S.3       1 <0>        -0.0488
     22 C16         5.1440    3.7998   -2.6199 C.3       1 <0>        -0.1755
     23 C17         5.7292    4.8870   -3.5234 C.3       1 <0>         0.0496
     24 H2          6.4135    5.5147   -2.9525 H         1 <0>         0.1533
     25 C18         4.5924    5.7493   -4.1112 C.3       1 <0>        -0.1331
     26 C19         5.0745    6.0224   -5.5604 C.3       1 <0>        -0.1432
     27 C20         5.7795    4.6887   -5.9121 C.3       1 <0>        -0.0090
     28 N3          6.4427    4.2680   -4.6555 N.4       1 <0>        -0.5183
     29 H3         -0.8971    1.9734    0.0252 H         1 <0>         0.1442
     30 H4          1.6432    2.8219    0.0012 H         1 <0>         0.1383
     31 H5         -0.8661   -0.6464    0.0069 H         1 <0>         0.1731
     32 H6          3.7150    2.3281   -1.3879 H         1 <0>         0.1416
     33 H7          9.4573   -0.4546    0.8285 H         1 <0>         0.1530
     34 H8          8.1097   -2.0247    2.1355 H         1 <0>         0.1514
     35 H9          5.2598   -2.6425    2.6766 H         1 <0>         0.4305
     36 H10         4.5210    3.1306   -3.2134 H         1 <0>         0.1167
     37 H11         4.5395    4.2623   -1.8396 H         1 <0>         0.1399
     38 H12         3.6526    5.1972   -4.1153 H         1 <0>         0.1051
     39 H13         4.4902    6.6822   -3.5569 H         1 <0>         0.1201
     40 H14         4.2300    6.2047   -6.2249 H         1 <0>         0.1212
     41 H15         5.7776    6.8548   -5.5876 H         1 <0>         0.1023
     42 H16         5.0479    3.9435   -6.2244 H         1 <0>         0.1351
     43 H17         6.5202    4.8463   -6.6961 H         1 <0>         0.1403
     44 H18         7.4046    4.5727   -4.6582 H         1 <0>         0.4353
     45 H19         6.4063    3.2632   -4.5713 H         1 <0>         0.4307
@<TRIPOS>BOND
     1    1    6 2
     2    1    2 1
     3    1   29 1
     4    2    3 2
     5    2   30 1
     6    3    4 1
     7    3    7 1
     8    4    5 1
     9    4    6 1
    10    6   31 1
    11    7   16 ar
    12    7    8 ar
    13    8    9 ar
    14    8   32 1
    15    9   10 ar
    16    9   21 1
    17   10   15 ar
    18   10   11 ar
    19   11   12 ar
    20   11   20 1
    21   12   13 ar
    22   12   33 1
    23   13   14 ar
    24   13   34 1
    25   14   19 1
    26   14   15 ar
    27   15   16 ar
    28   16   17 1
    29   17   18 2
    30   17   19 am
    31   19   35 1
    32   21   22 1
    33   22   23 1
    34   22   36 1
    35   22   37 1
    36   23   24 1
    37   23   28 1
    38   23   25 1
    39   25   26 1
    40   25   38 1
    41   25   39 1
    42   26   27 1
    43   26   40 1
    44   26   41 1
    45   27   28 1
    46   27   42 1
    47   27   43 1
    48   28   44 1
    49   28   45 1
@<TRIPOS>MOLECULE
CHEMBL14593
   40    43     0     0     0
SMALL
USER_CHARGES

@<TRIPOS>ATOM
      1 C1         -0.7731    0.6366   -0.0834 C.ar      1 <0>        -0.1066
      2 C2          0.2954    1.5102   -0.1602 C.ar      1 <0>        -0.1237
      3 C3          1.5880    1.0208   -0.1841 C.ar      1 <0>        -0.0946
      4 C4          1.8120   -0.3423   -0.1308 C.ar      1 <0>        -0.0983
      5 C5          0.7435   -1.2158   -0.0532 C.ar      1 <0>        -0.0899
      6 C6         -0.5491   -0.7264   -0.0307 C.ar      1 <0>        -0.1211
      7 C7          3.2211   -0.8759   -0.1579 C.3       1 <0>         0.1121
      8 O1          3.7153   -0.9840    1.1785 O.3       1 <0>        -0.3237
      9 C8          4.9744   -1.4505    1.3312 C.ar      1 <0>         0.2726
     10 C9          5.2270   -2.8214    1.4730 C.ar      1 <0>        -0.2781
     11 C10         6.5481   -3.2809    1.6301 C.ar      1 <0>         0.2397
     12 N1          7.5725   -2.4729    1.6509 N.ar      1 <0>        -0.4699
     13 C11         7.4280   -1.1406    1.5221 C.ar      1 <0>         0.2911
     14 N2          8.2687   -0.1249    1.5089 N.2       1 <0>        -0.2820
     15 N3          7.5498    1.0634    1.3418 N.pl3     1 <0>        -0.4057
     16 C12         6.2417    0.7971    1.2483 C.2       1 <0>         0.1330
     17 C13         6.0822   -0.5726    1.3474 C.ar      1 <0>        -0.2863
     18 C14         4.1130   -3.7791    1.4582 C.2       1 <0>         0.4629
     19 O2          3.9103   -4.4613    0.4713 O.2       1 <0>        -0.4390
     20 C15         3.2382   -3.9140    2.6425 C.ar      1 <0>        -0.1596
     21 C16         2.1156   -4.7427    2.5944 C.ar      1 <0>        -0.0602
     22 C17         1.3037   -4.8639    3.7029 C.ar      1 <0>        -0.1331
     23 C18         1.5994   -4.1661    4.8606 C.ar      1 <0>        -0.0847
     24 C19         2.7104   -3.3431    4.9151 C.ar      1 <0>        -0.1327
     25 C20         3.5342   -3.2176    3.8159 C.ar      1 <0>        -0.0579
     26 H1         -1.7828    1.0193   -0.0602 H         1 <0>         0.1252
     27 H2          0.1204    2.5751   -0.2018 H         1 <0>         0.1258
     28 H3          2.4228    1.7033   -0.2448 H         1 <0>         0.1227
     29 H4          0.9185   -2.2807   -0.0119 H         1 <0>         0.1237
     30 H5         -1.3840   -1.4089    0.0296 H         1 <0>         0.1263
     31 H6          3.2283   -1.8590   -0.6286 H         1 <0>         0.0716
     32 H7          3.8561   -0.1963   -0.7263 H         1 <0>         0.0696
     33 H8          6.7203   -4.3416    1.7378 H         1 <0>         0.1747
     34 H9          5.4522    1.5220    1.1154 H         1 <0>         0.1980
     35 H10         1.8833   -5.2873    1.6911 H         1 <0>         0.1333
     36 H11         0.4350   -5.5046    3.6670 H         1 <0>         0.1296
     37 H12         0.9600   -4.2640    5.7255 H         1 <0>         0.1274
     38 H13         2.9356   -2.8012    5.8218 H         1 <0>         0.1283
     39 H14         4.4038   -2.5786    3.8613 H         1 <0>         0.1260
     40 H15         7.9416    1.9498    1.3001 H         1 <0>         0.4534
@<TRIPOS>BOND
     1    1    6 ar
     2    1    2 ar
     3    1   26 1
     4    2    3 ar
     5    2   27 1
     6    3    4 ar
     7    3   28 1
     8    4    5 ar
     9    4    7 1
    10    5    6 ar
    11    5   29 1
    12    6   30 1
    13    7    8 1
    14    7   31 1
    15    7   32 1
    16    8    9 1
    17    9   17 ar
    18    9   10 ar
    19   10   11 ar
    20   10   18 1
    21   11   12 ar
    22   11   33 1
    23   12   13 ar
    24   13   17 ar
    25   13   14 2
    26   14   15 1
    27   15   16 1
    28   15   40 1
    29   16   17 2
    30   16   34 1
    31   18   19 2
    32   18   20 1
    33   20   25 ar
    34   20   21 ar
    35   21   22 ar
    36   21   35 1
    37   22   23 ar
    38   22   36 1
    39   23   24 ar
    40   23   37 1
    41   24   25 ar
    42   24   38 1
    43   25   39 1
@<TRIPOS>MOLECULE
CHEMBL14593
   40    43     0     0     0
SMALL
USER_CHARGES

@<TRIPOS>ATOM
      1 C1         -0.7751    0.6362   -0.0840 C.ar      1 <0>        -0.1065
      2 C2          0.2935    1.5097   -0.1605 C.ar      1 <0>        -0.1233
      3 C3          1.5861    1.0202   -0.1844 C.ar      1 <0>        -0.0930
      4 C4          1.8100   -0.3429   -0.1313 C.ar      1 <0>        -0.0986
      5 C5          0.7414   -1.2164   -0.0538 C.ar      1 <0>        -0.0906
      6 C6         -0.5512   -0.7269   -0.0313 C.ar      1 <0>        -0.1220
      7 C7          3.2190   -0.8766   -0.1583 C.3       1 <0>         0.1119
      8 O1          3.7131   -0.9849    1.1782 O.3       1 <0>        -0.3205
      9 C8          4.9739   -1.4521    1.3311 C.ar      1 <0>         0.2635
     10 C9          5.2263   -2.8272    1.4732 C.ar      1 <0>        -0.2708
     11 C10         6.5497   -3.2634    1.6285 C.ar      1 <0>         0.2252
     12 N1          7.5512   -2.4167    1.6441 N.ar      1 <0>        -0.5022
     13 C11         7.3695   -1.1041    1.5138 C.ar      1 <0>         0.3424
     14 N2          8.2251   -0.0399    1.4975 N.pl3     1 <0>        -0.4865
     15 N3          7.4930    1.1393    1.3298 N.2       1 <0>        -0.2290
     16 C12         6.2223    0.8670    1.2403 C.2       1 <0>         0.1051
     17 C13         6.0735   -0.5797    1.3473 C.ar      1 <0>        -0.2513
     18 C14         4.1175   -3.7955    1.4596 C.2       1 <0>         0.4635
     19 O2          3.9198   -4.4796    0.4737 O.2       1 <0>        -0.4367
     20 C15         3.2445   -3.9361    2.6442 C.ar      1 <0>        -0.1608
     21 C16         2.1283   -4.7737    2.5973 C.ar      1 <0>        -0.0593
     22 C17         1.3179   -4.9003    3.7062 C.ar      1 <0>        -0.1327
     23 C18         1.6087   -4.1992    4.8633 C.ar      1 <0>        -0.0835
     24 C19         2.7132   -3.3674    4.9166 C.ar      1 <0>        -0.1321
     25 C20         3.5356   -3.2364    3.8170 C.ar      1 <0>        -0.0579
     26 H1         -1.7848    1.0189   -0.0608 H         1 <0>         0.1250
     27 H2          0.1186    2.5747   -0.2021 H         1 <0>         0.1263
     28 H3          2.4209    1.7026   -0.2449 H         1 <0>         0.1249
     29 H4          0.9163   -2.2813   -0.0126 H         1 <0>         0.1229
     30 H5         -1.3861   -1.4093    0.0288 H         1 <0>         0.1258
     31 H6          3.2262   -1.8597   -0.6291 H         1 <0>         0.0704
     32 H7          3.8542   -0.1970   -0.7265 H         1 <0>         0.0720
     33 H8          6.7486   -4.3192    1.7380 H         1 <0>         0.1779
     34 H9          5.4242    1.5824    1.1076 H         1 <0>         0.2053
     35 H10         1.8998   -5.3210    1.6946 H         1 <0>         0.1336
     36 H11         0.4542   -5.5479    3.6713 H         1 <0>         0.1303
     37 H12         0.9704   -4.3014    5.7285 H         1 <0>         0.1281
     38 H13         2.9343   -2.8228    5.8227 H         1 <0>         0.1289
     39 H14         4.4001   -2.5906    3.8615 H         1 <0>         0.1253
     40 H15         9.1894   -0.0936    1.5880 H         1 <0>         0.4492
@<TRIPOS>BOND
     1    1    6 ar
     2    1    2 ar
     3    1   26 1
     4    2    3 ar
     5    2   27 1
     6    3    4 ar
     7    3   28 1
     8    4    5 ar
     9    4    7 1
    10    5    6 ar
    11    5   29 1
    12    6   30 1
    13    7    8 1
    14    7   31 1
    15    7   32 1
    16    8    9 1
    17    9   17 ar
    18    9   10 ar
    19   10   11 ar
    20   10   18 1
    21   11   12 ar
    22   11   33 1
    23   12   13 ar
    24   13   17 ar
    25   13   14 1
    26   14   40 1
    27   14   15 1
    28   15   16 2
    29   16   34 1
    30   16   17 1
    31   18   19 2
    32   18   20 1
    33   20   25 ar
    34   20   21 ar
    35   21   22 ar
    36   21   35 1
    37   22   23 ar
    38   22   36 1
    39   23   24 ar
    40   23   37 1
    41   24   25 ar
    42   24   38 1
    43   25   39 1
@<TRIPOS>MOLECULE
CHEMBL475948
   64    67     0     0     0
SMALL
USER_CHARGES

@<TRIPOS>ATOM
      1 C1          0.9446    0.9775   -0.6582 C.3       1 <0>        -0.1219
      2 C2          0.8933   -0.5273   -0.5952 C.cat     1 <0>         0.3269
      3 N1          0.6256   -1.3198   -1.5991 N.pl3     1 <0>        -0.4762
      4 C3          0.6655   -2.5912   -1.1890 C.2       1 <0>         0.0639
      5 C4          0.9737   -2.5927    0.1379 C.2       1 <0>         0.0824
      6 N2          1.1220   -1.2730    0.5052 N.pl3     1 <0>        -0.3849
      7 C5          1.4609   -0.7738    1.8402 C.3       1 <0>         0.1053
      8 C6          2.7004    0.1188    1.7514 C.3       1 <0>        -0.1766
      9 C7          0.2876    0.0364    2.3948 C.3       1 <0>        -0.1780
     10 C8          1.1240   -3.7751    1.0091 C.ar      1 <0>         0.2417
     11 C9          2.1849   -3.8572    1.9222 C.ar      1 <0>        -0.0610
     12 C10         2.2827   -4.9855    2.7173 C.ar      1 <0>         0.1981
     13 N3          1.3788   -5.9461    2.5932 N.ar      1 <0>        -0.5101
     14 C11         0.3862   -5.8422    1.7219 C.ar      1 <0>         0.5734
     15 N4          0.2499   -4.7798    0.9446 N.ar      1 <0>        -0.5253
     16 N5         -0.5369   -6.8717    1.6252 N.pl3     1 <0>        -0.6111
     17 C12        -0.4799   -7.9499    2.5178 C.ar      1 <0>         0.0762
     18 C13        -0.0824   -7.7428    3.8321 C.ar      1 <0>        -0.0585
     19 C14        -0.0261   -8.8055    4.7119 C.ar      1 <0>        -0.1748
     20 C15        -0.3674  -10.0813    4.2825 C.ar      1 <0>         0.2491
     21 C16        -0.7653  -10.2882    2.9682 C.ar      1 <0>        -0.1510
     22 C17        -0.8262   -9.2247    2.0897 C.ar      1 <0>        -0.0846
     23 N6         -0.3099  -11.1585    5.1742 N.pl3     1 <0>        -0.6143
     24 C18         0.0876  -11.0803    6.5916 C.3       1 <0>         0.1131
     25 C19        -0.5844  -12.3055    7.2601 C.3       1 <0>        -0.1350
     26 C20        -0.4561  -13.3776    6.1459 C.3       1 <0>        -0.1288
     27 C21        -0.6421  -12.5544    4.8540 C.3       1 <0>         0.1256
     28 H1          0.0286  -12.9269    4.0797 H         1 <0>         0.0969
     29 C22        -2.0716  -12.6467    4.3858 C.2       1 <0>         0.4953
     30 O1         -2.7547  -11.6466    4.3226 O.2       1 <0>        -0.5167
     31 N7         -2.5908  -13.8406    4.0373 N.am      1 <0>        -0.6213
     32 C23        -3.9804  -13.9303    3.5821 C.3       1 <0>         0.0841
     33 C24        -1.7656  -15.0487    4.1137 C.3       1 <0>         0.0657
     34 F1          3.0900   -2.8593    2.0229 F         1 <0>        -0.1177
     35 H2          1.9749    1.3000   -0.8086 H         1 <0>         0.1262
     36 H3          0.3296    1.3277   -1.4873 H         1 <0>         0.1200
     37 H4          0.5664    1.3934    0.2757 H         1 <0>         0.1211
     38 H5          0.4849   -3.4626   -1.8009 H         1 <0>         0.2309
     39 H6          1.6661   -1.6156    2.5016 H         1 <0>         0.1339
     40 H7          2.9525    0.4903    2.7446 H         1 <0>         0.1040
     41 H8          3.5363   -0.4584    1.3563 H         1 <0>         0.0791
     42 H9          2.4952    0.9606    1.0900 H         1 <0>         0.0765
     43 H10        -0.6233   -0.5599    2.3413 H         1 <0>         0.0739
     44 H11         0.4877    0.3018    3.4329 H         1 <0>         0.1041
     45 H12         0.1623    0.9447    1.8053 H         1 <0>         0.0777
     46 H13         3.0875   -5.0821    3.4311 H         1 <0>         0.1955
     47 H14        -1.2225   -6.8455    0.9394 H         1 <0>         0.4265
     48 H15         0.1830   -6.7506    4.1660 H         1 <0>         0.1286
     49 H16         0.2837   -8.6445    5.7340 H         1 <0>         0.1254
     50 H17        -1.0308  -11.2804    2.6342 H         1 <0>         0.1168
     51 H18        -1.1393   -9.3850    1.0686 H         1 <0>         0.1240
     52 H19         1.1717  -11.1439    6.6857 H         1 <0>         0.0697
     53 H20        -0.2791  -10.1560    7.0380 H         1 <0>         0.0750
     54 H21        -0.0431  -12.6072    8.1568 H         1 <0>         0.0920
     55 H22        -1.6308  -12.1015    7.4875 H         1 <0>         0.0776
     56 H23         0.5284  -13.8446    6.1716 H         1 <0>         0.0935
     57 H24        -1.2421  -14.1270    6.2395 H         1 <0>         0.0904
     58 H25        -4.0172  -13.8035    2.5001 H         1 <0>         0.0557
     59 H26        -4.3875  -14.9059    3.8477 H         1 <0>         0.0723
     60 H27        -4.5704  -13.1481    4.0598 H         1 <0>         0.0767
     61 H28        -0.7696  -14.7864    4.4704 H         1 <0>         0.0825
     62 H29        -2.2232  -15.7583    4.8030 H         1 <0>         0.0682
     63 H30        -1.6901  -15.5002    3.1245 H         1 <0>         0.0662
     64 H31         0.4279   -1.0297   -2.5033 H         1 <0>         0.4661
@<TRIPOS>BOND
     1    1    2 1
     2    1   35 1
     3    1   36 1
     4    1   37 1
     5    2    6 1
     6    2    3 2
     7    3    4 1
     8    3   64 1
     9    4    5 2
    10    4   38 1
    11    5    6 1
    12    5   10 1
    13    6    7 1
    14    7    8 1
    15    7    9 1
    16    7   39 1
    17    8   40 1
    18    8   41 1
    19    8   42 1
    20    9   43 1
    21    9   44 1
    22    9   45 1
    23   10   15 ar
    24   10   11 ar
    25   11   12 ar
    26   11   34 1
    27   12   13 ar
    28   12   46 1
    29   13   14 ar
    30   14   15 ar
    31   14   16 1
    32   16   17 1
    33   16   47 1
    34   17   22 ar
    35   17   18 ar
    36   18   19 ar
    37   18   48 1
    38   19   20 ar
    39   19   49 1
    40   20   21 ar
    41   20   23 1
    42   21   22 ar
    43   21   50 1
    44   22   51 1
    45   23   27 1
    46   23   24 1
    47   24   25 1
    48   24   52 1
    49   24   53 1
    50   25   26 1
    51   25   54 1
    52   25   55 1
    53   26   27 1
    54   26   56 1
    55   26   57 1
    56   27   28 1
    57   27   29 1
    58   29   30 2
    59   29   31 am
    60   31   32 1
    61   31   33 1
    62   32   58 1
    63   32   59 1
    64   32   60 1
    65   33   61 1
    66   33   62 1
    67   33   63 1
@<TRIPOS>MOLECULE
CHEMBL475948
   63    66     0     0     0
SMALL
USER_CHARGES

@<TRIPOS>ATOM
      1 C1          0.9445    0.9775   -0.6583 C.3       1 <0>        -0.0791
      2 C2          0.8933   -0.5273   -0.5952 C.2       1 <0>         0.2369
      3 N1          0.6256   -1.3198   -1.5991 N.2       1 <0>        -0.4924
      4 C3          0.6655   -2.5913   -1.1890 C.2       1 <0>         0.0528
      5 C4          0.9737   -2.5928    0.1379 C.2       1 <0>        -0.0200
      6 N2          1.1220   -1.2731    0.5052 N.pl3     1 <0>        -0.4309
      7 C5          1.4610   -0.7738    1.8402 C.3       1 <0>         0.1151
      8 C6          2.7004    0.1189    1.7513 C.3       1 <0>        -0.1666
      9 C7          0.2876    0.0364    2.3948 C.3       1 <0>        -0.1702
     10 C8          1.1240   -3.7751    1.0092 C.ar      1 <0>         0.2852
     11 C9          2.1850   -3.8572    1.9223 C.ar      1 <0>        -0.0718
     12 C10         2.2829   -4.9854    2.7174 C.ar      1 <0>         0.1798
     13 N3          1.3790   -5.9461    2.5933 N.ar      1 <0>        -0.5321
     14 C11         0.3864   -5.8422    1.7220 C.ar      1 <0>         0.5647
     15 N4          0.2500   -4.7798    0.9447 N.ar      1 <0>        -0.5296
     16 N5         -0.5368   -6.8717    1.6254 N.pl3     1 <0>        -0.6257
     17 C12        -0.4797   -7.9499    2.5180 C.ar      1 <0>         0.0991
     18 C13        -0.0822   -7.7428    3.8323 C.ar      1 <0>        -0.0634
     19 C14        -0.0259   -8.8054    4.7122 C.ar      1 <0>        -0.1718
     20 C15        -0.3671  -10.0812    4.2828 C.ar      1 <0>         0.2364
     21 C16        -0.7651  -10.2882    2.9685 C.ar      1 <0>        -0.1501
     22 C17        -0.8260   -9.2247    2.0900 C.ar      1 <0>        -0.0942
     23 N6         -0.3096  -11.1584    5.1745 N.pl3     1 <0>        -0.6173
     24 C18         0.0880  -11.0801    6.5919 C.3       1 <0>         0.1148
     25 C19        -0.5840  -12.3054    7.2605 C.3       1 <0>        -0.1346
     26 C20        -0.4557  -13.3775    6.1463 C.3       1 <0>        -0.1280
     27 C21        -0.6418  -12.5544    4.8544 C.3       1 <0>         0.1279
     28 H1          0.0289  -12.9268    4.0800 H         1 <0>         0.0948
     29 C22        -2.0712  -12.6467    4.3862 C.2       1 <0>         0.4945
     30 O1         -2.7544  -11.6466    4.3229 O.2       1 <0>        -0.5127
     31 N7         -2.5904  -13.8406    4.0377 N.am      1 <0>        -0.6235
     32 C23        -3.9800  -13.9303    3.5826 C.3       1 <0>         0.0847
     33 C24        -1.7652  -15.0487    4.1141 C.3       1 <0>         0.0674
     34 F1          3.0901   -2.8592    2.0229 F         1 <0>        -0.1203
     35 H2          1.9748    1.2999   -0.8087 H         1 <0>         0.0851
     36 H3          0.3295    1.3276   -1.4873 H         1 <0>         0.0945
     37 H4          0.5663    1.3934    0.2756 H         1 <0>         0.0811
     38 H5          0.4849   -3.4627   -1.8008 H         1 <0>         0.1776
     39 H6          1.6661   -1.6155    2.5016 H         1 <0>         0.1063
     40 H7          2.4952    0.9606    1.0899 H         1 <0>         0.0713
     41 H8          2.9526    0.4904    2.7445 H         1 <0>         0.0805
     42 H9          3.5363   -0.4583    1.3562 H         1 <0>         0.0685
     43 H10        -0.6232   -0.5599    2.3413 H         1 <0>         0.0637
     44 H11         0.4877    0.3018    3.4329 H         1 <0>         0.0808
     45 H12         0.1623    0.9447    1.8052 H         1 <0>         0.0720
     46 H13         3.0876   -5.0820    3.4312 H         1 <0>         0.1841
     47 H14        -1.2224   -6.8456    0.9396 H         1 <0>         0.4242
     48 H15         0.1832   -6.7505    4.1662 H         1 <0>         0.1305
     49 H16         0.2839   -8.6444    5.7342 H         1 <0>         0.1221
     50 H17        -1.0305  -11.2804    2.6345 H         1 <0>         0.1129
     51 H18        -1.1391   -9.3850    1.0689 H         1 <0>         0.1227
     52 H19         1.1720  -11.1438    6.6859 H         1 <0>         0.0671
     53 H20        -0.2788  -10.1558    7.0383 H         1 <0>         0.0739
     54 H21        -0.0426  -12.6070    8.1572 H         1 <0>         0.0896
     55 H22        -1.6304  -12.1014    7.4878 H         1 <0>         0.0765
     56 H23         0.5288  -13.8445    6.1720 H         1 <0>         0.0918
     57 H24        -1.2417  -14.1269    6.2399 H         1 <0>         0.0884
     58 H25        -4.0169  -13.8036    2.5006 H         1 <0>         0.0552
     59 H26        -4.3871  -14.9060    3.8482 H         1 <0>         0.0703
     60 H27        -4.5701  -13.1482    4.0603 H         1 <0>         0.0764
     61 H28        -0.7692  -14.7863    4.4708 H         1 <0>         0.0824
     62 H29        -2.2228  -15.7583    4.8035 H         1 <0>         0.0660
     63 H30        -1.6897  -15.5002    3.1249 H         1 <0>         0.0646
@<TRIPOS>BOND
     1    1    2 1
     2    1   35 1
     3    1   36 1
     4    1   37 1
     5    2    6 1
     6    2    3 2
     7    3    4 1
     8    4    5 2
     9    4   38 1
    10    5    6 1
    11    5   10 1
    12    6    7 1
    13    7    8 1
    14    7    9 1
    15    7   39 1
    16    8   40 1
    17    8   41 1
    18    8   42 1
    19    9   43 1
    20    9   44 1
    21    9   45 1
    22   10   15 ar
    23   10   11 ar
    24   11   12 ar
    25   11   34 1
    26   12   13 ar
    27   12   46 1
    28   13   14 ar
    29   14   15 ar
    30   14   16 1
    31   16   17 1
    32   16   47 1
    33   17   22 ar
    34   17   18 ar
    35   18   19 ar
    36   18   48 1
    37   19   20 ar
    38   19   49 1
    39   20   21 ar
    40   20   23 1
    41   21   22 ar
    42   21   50 1
    43   22   51 1
    44   23   27 1
    45   23   24 1
    46   24   25 1
    47   24   52 1
    48   24   53 1
    49   25   26 1
    50   25   54 1
    51   25   55 1
    52   26   27 1
    53   26   56 1
    54   26   57 1
    55   27   28 1
    56   27   29 1
    57   29   30 2
    58   29   31 am
    59   31   32 1
    60   31   33 1
    61   32   58 1
    62   32   59 1
    63   32   60 1
    64   33   61 1
    65   33   62 1
    66   33   63 1
@<TRIPOS>MOLECULE
CHEMBL420463
   54    56     0     0     0
SMALL
USER_CHARGES

@<TRIPOS>ATOM
      1 C1         -1.9105    0.8345    0.2486 C.3       1 <0>        -0.1419
      2 C2         -1.6860   -0.6770    0.1715 C.3       1 <0>         0.0161
      3 C3         -1.0082   -1.1581    1.4561 C.3       1 <0>        -0.1422
      4 C4         -3.0326   -1.3850    0.0095 C.3       1 <0>        -0.1469
      5 C5         -0.8061   -0.9945   -1.0100 C.2       1 <0>        -0.0119
      6 C6          0.4474   -0.5561   -1.2121 C.2       1 <0>        -0.0384
      7 N1          0.8754   -1.0673   -2.3799 N.2       1 <0>        -0.4496
      8 C7         -0.0750   -1.7981   -2.8892 C.2       1 <0>         0.1835
      9 O1         -1.1268   -1.7764   -2.0596 O.3       1 <0>        -0.1870
     10 C8         -0.0015   -2.5491   -4.1936 C.3       1 <0>        -0.0267
     11 S1          0.6391   -4.2196   -3.8943 S.3       1 <0>         0.0378
     12 C9          0.6647   -4.9593   -5.4933 C.2       1 <0>        -0.2345
     13 C10         1.0497   -6.2106   -5.8659 C.2       1 <0>         0.0949
     14 N2          0.9866   -6.5616   -7.1383 N.2       1 <0>        -0.5338
     15 C11         0.5561   -5.7205   -8.0608 C.2       1 <0>         0.3542
     16 S2          0.1848   -4.2764   -7.0748 S.3       1 <0>         0.0263
     17 N3          0.4222   -5.9095   -9.4312 N.pl3     1 <0>        -0.6111
     18 C12         0.6476   -7.1710   -9.9878 C.ar      1 <0>         0.2212
     19 C13         0.4511   -8.3144   -9.2235 C.ar      1 <0>        -0.1526
     20 C14         0.6750   -9.5597   -9.7768 C.ar      1 <0>         0.0120
     21 C15         1.0942   -9.6694  -11.0901 C.ar      1 <0>        -0.6996
     22 C16         1.2911   -8.5333  -11.8536 C.ar      1 <0>         0.0058
     23 C17         1.0633   -7.2851  -11.3086 C.ar      1 <0>        -0.1727
     24 S3          1.3785  -11.2603  -11.7920 S.o2      1 <0>         2.6976
     25 O2          2.2888  -11.0732  -12.8670 O.2       1 <0>        -0.9576
     26 O3          1.6491  -12.1396  -10.7090 O.2       1 <0>        -0.9566
     27 N4         -0.0499  -11.7618  -12.4633 N.pl3     1 <0>        -1.1126
     28 C18        -0.6201  -11.0347  -13.6001 C.3       1 <0>         0.1162
     29 C19        -1.7052  -11.8885  -14.2592 C.3       1 <0>         0.0678
     30 O4         -2.7885  -12.0707  -13.3452 O.3       1 <0>        -0.5723
     31 H1         -0.9511    1.3389    0.3641 H         1 <0>         0.0641
     32 H2         -2.3934    1.1772   -0.6665 H         1 <0>         0.0607
     33 H3         -2.5469    1.0642    1.1032 H         1 <0>         0.0735
     34 H4         -1.6446   -0.9284    2.3107 H         1 <0>         0.0736
     35 H5         -0.8483   -2.2349    1.4012 H         1 <0>         0.0618
     36 H6         -0.0488   -0.6537    1.5715 H         1 <0>         0.0642
     37 H7         -3.5155   -1.0422   -0.9057 H         1 <0>         0.0608
     38 H8         -2.8727   -2.4618   -0.0455 H         1 <0>         0.0621
     39 H9         -3.6690   -1.1553    0.8641 H         1 <0>         0.0692
     40 H10         1.0102    0.0904   -0.5550 H         1 <0>         0.1873
     41 H11        -0.9974   -2.6150   -4.6316 H         1 <0>         0.1190
     42 H12         0.6628   -2.0227   -4.8790 H         1 <0>         0.1316
     43 H13         1.4050   -6.9125   -5.1258 H         1 <0>         0.1765
     44 H14         0.1722   -5.1655  -10.0012 H         1 <0>         0.4329
     45 H15         0.1241   -8.2295   -8.1977 H         1 <0>         0.1512
     46 H16         0.5228  -10.4490   -9.1831 H         1 <0>         0.1447
     47 H17         1.6189   -8.6225  -12.8788 H         1 <0>         0.1458
     48 H18         1.2123   -6.3984  -11.9070 H         1 <0>         0.1380
     49 H19        -0.5090  -12.5369  -12.1037 H         1 <0>         0.4234
     50 H20        -1.0563  -10.0988  -13.2510 H         1 <0>         0.0734
     51 H21         0.1649  -10.8213  -14.3256 H         1 <0>         0.0948
     52 H22        -2.0674  -11.3867  -15.1565 H         1 <0>         0.0634
     53 H23        -1.2898  -12.8596  -14.5285 H         1 <0>         0.0579
     54 H24        -3.5145  -12.6040  -13.6970 H         1 <0>         0.3846
@<TRIPOS>BOND
     1    1    2 1
     2    1   31 1
     3    1   32 1
     4    1   33 1
     5    2    3 1
     6    2    4 1
     7    2    5 1
     8    3   34 1
     9    3   35 1
    10    3   36 1
    11    4   37 1
    12    4   38 1
    13    4   39 1
    14    5    9 1
    15    5    6 2
    16    6    7 1
    17    6   40 1
    18    7    8 2
    19    8    9 1
    20    8   10 1
    21   10   11 1
    22   10   41 1
    23   10   42 1
    24   11   12 1
    25   12   16 1
    26   12   13 2
    27   13   14 1
    28   13   43 1
    29   14   15 2
    30   15   16 1
    31   15   17 1
    32   17   18 1
    33   17   44 1
    34   18   23 ar
    35   18   19 ar
    36   19   20 ar
    37   19   45 1
    38   20   21 ar
    39   20   46 1
    40   21   22 ar
    41   21   24 1
    42   22   23 ar
    43   22   47 1
    44   23   48 1
    45   24   25 2
    46   24   26 2
    47   24   27 1
    48   27   28 1
    49   27   49 1
    50   28   29 1
    51   28   50 1
    52   28   51 1
    53   29   30 1
    54   29   52 1
    55   29   53 1
    56   30   54 1
@<TRIPOS>MOLECULE
CHEMBL455195
   56    58     0     0     0
SMALL
USER_CHARGES

@<TRIPOS>ATOM
      1 C1         -0.0187    1.5258    0.0104 C.3       1 <0>        -0.1737
      2 C2          0.0021   -0.0041    0.0020 C.3       1 <0>        -0.1434
      3 C3          0.7182   -0.4975   -1.2568 C.3       1 <0>         0.0129
      4 C4          0.6267   -2.0232   -1.3300 C.3       1 <0>        -0.1192
      5 C5          1.3444   -2.5122   -2.5913 C.3       1 <0>        -0.1188
      6 C6          2.7938   -2.0183   -2.5660 C.3       1 <0>        -0.1412
      7 C7          2.8050   -0.4928   -2.4470 C.3       1 <0>        -0.0126
      8 N1          2.1275   -0.0900   -1.2087 N.4       1 <0>        -0.5033
      9 C8          0.6475   -1.9669   -3.8112 C.2       1 <0>         0.5046
     10 O1         -0.3278   -1.2567   -3.6857 O.2       1 <0>        -0.4648
     11 N2          1.1078   -2.2685   -5.0415 N.am      1 <0>        -0.6121
     12 C9          0.4639   -1.7647   -6.1683 C.2       1 <0>         0.3027
     13 N3         -0.5949   -0.9803   -6.2460 N.2       1 <0>        -0.4762
     14 C10        -1.0786   -0.5939   -7.4119 C.2       1 <0>         0.0692
     15 C11        -0.4772   -1.0100   -8.5614 C.2       1 <0>        -0.2052
     16 S1          0.8548   -2.0010   -7.8967 S.3       1 <0>         0.0453
     17 S2         -0.8924   -0.6624  -10.2381 S.3       1 <0>         0.0552
     18 C12         0.3580   -1.5625  -11.1956 C.3       1 <0>        -0.0276
     19 C13         0.1150   -1.3471  -12.6672 C.2       1 <0>         0.1741
     20 N4          0.6261   -0.3904  -13.3883 N.2       1 <0>        -0.4462
     21 C14         0.1852   -0.5204  -14.6521 C.2       1 <0>        -0.0389
     22 C15        -0.6207   -1.5943  -14.6943 C.2       1 <0>        -0.0042
     23 O2         -0.6576   -2.1114  -13.4505 O.3       1 <0>        -0.1867
     24 C16        -1.3437   -2.1240  -15.9058 C.3       1 <0>         0.0149
     25 C17        -0.3250   -2.4994  -16.9839 C.3       1 <0>        -0.1427
     26 C18        -2.1532   -3.3623  -15.5157 C.3       1 <0>        -0.1473
     27 C19        -2.2868   -1.0480  -16.4478 C.3       1 <0>        -0.1427
     28 H1          1.0039    1.9031    0.0027 H         1 <0>         0.0496
     29 H2         -0.5459    1.8868   -0.8726 H         1 <0>         0.0733
     30 H3         -0.5289    1.8773    0.9072 H         1 <0>         0.0839
     31 H4          0.5293   -0.3651    0.8851 H         1 <0>         0.0869
     32 H5         -1.0205   -0.3814    0.0098 H         1 <0>         0.1131
     33 H6          0.2448   -0.0633   -2.1374 H         1 <0>         0.1583
     34 H7          1.0998   -2.4589   -0.4500 H         1 <0>         0.1035
     35 H8         -0.4204   -2.3236   -1.3674 H         1 <0>         0.1222
     36 H9          1.3311   -3.6018   -2.6190 H         1 <0>         0.1377
     37 H10         3.3118   -2.4539   -1.7116 H         1 <0>         0.1116
     38 H11         3.2956   -2.3152   -3.4869 H         1 <0>         0.1170
     39 H12         3.8354   -0.1378   -2.4288 H         1 <0>         0.1425
     40 H13         2.2869   -0.0583   -3.3019 H         1 <0>         0.1261
     41 H14         2.1835    0.9123   -1.1066 H         1 <0>         0.4297
     42 H15         1.8877   -2.8364   -5.1418 H         1 <0>         0.4293
     43 H16        -1.9462    0.0479   -7.4543 H         1 <0>         0.1792
     44 H17         1.3502   -1.1951  -10.9335 H         1 <0>         0.1328
     45 H18         0.2930   -2.6266  -10.9685 H         1 <0>         0.1212
     46 H19         0.4340    0.1228  -15.4833 H         1 <0>         0.1893
     47 H20         0.3469   -3.2659  -16.5977 H         1 <0>         0.0609
     48 H21        -0.8478   -2.8825  -17.8602 H         1 <0>         0.0754
     49 H22         0.2518   -1.6172  -17.2618 H         1 <0>         0.0648
     50 H23        -2.8789   -3.0948  -14.7477 H         1 <0>         0.0616
     51 H24        -2.6761   -3.7454  -16.3920 H         1 <0>         0.0709
     52 H25        -1.4813   -4.1288  -15.1296 H         1 <0>         0.0607
     53 H26        -1.7100   -0.1658  -16.7257 H         1 <0>         0.0648
     54 H27        -2.8096   -1.4312  -17.3241 H         1 <0>         0.0754
     55 H28        -3.0125   -0.7806  -15.6798 H         1 <0>         0.0616
     56 H29         2.5777   -0.5319   -0.4212 H         1 <0>         0.4243
@<TRIPOS>BOND
     1    1    2 1
     2    1   28 1
     3    1   29 1
     4    1   30 1
     5    2    3 1
     6    2   31 1
     7    2   32 1
     8    3    8 1
     9    3    4 1
    10    3   33 1
    11    4    5 1
    12    4   34 1
    13    4   35 1
    14    5    6 1
    15    5    9 1
    16    5   36 1
    17    6    7 1
    18    6   37 1
    19    6   38 1
    20    7    8 1
    21    7   39 1
    22    7   40 1
    23    8   41 1
    24    8   56 1
    25    9   10 2
    26    9   11 am
    27   11   12 1
    28   11   42 1
    29   12   16 1
    30   12   13 2
    31   13   14 1
    32   14   15 2
    33   14   43 1
    34   15   16 1
    35   15   17 1
    36   17   18 1
    37   18   19 1
    38   18   44 1
    39   18   45 1
    40   19   23 1
    41   19   20 2
    42   20   21 1
    43   21   22 2
    44   21   46 1
    45   22   23 1
    46   22   24 1
    47   24   25 1
    48   24   26 1
    49   24   27 1
    50   25   47 1
    51   25   48 1
    52   25   49 1
    53   26   50 1
    54   26   51 1
    55   26   52 1
    56   27   53 1
    57   27   54 1
    58   27   55 1
@<TRIPOS>MOLECULE
CHEMBL455195
   56    58     0     0     0
SMALL
USER_CHARGES

@<TRIPOS>ATOM
      1 C1         -0.0187    1.5258    0.0104 C.3       1 <0>        -0.1737
      2 C2          0.0021   -0.0041    0.0020 C.3       1 <0>        -0.1488
      3 C3          0.7182   -0.4975   -1.2568 C.3       1 <0>         0.0303
      4 C4          0.6267   -2.0232   -1.3300 C.3       1 <0>        -0.1254
      5 C5          1.3444   -2.5122   -2.5913 C.3       1 <0>        -0.1147
      6 C6          2.7938   -2.0183   -2.5660 C.3       1 <0>        -0.1460
      7 C7          2.8050   -0.4928   -2.4470 C.3       1 <0>        -0.0023
      8 N1          2.1275   -0.0900   -1.2087 N.4       1 <0>        -0.5075
      9 C8          1.3260   -4.0186   -2.6296 C.2       1 <0>         0.5116
     10 O1          0.7916   -4.6415   -1.7365 O.2       1 <0>        -0.4546
     11 N2          1.9032   -4.6737   -3.6563 N.am      1 <0>        -0.6144
     12 C9          1.8862   -6.0653   -3.6917 C.2       1 <0>         0.3100
     13 N3          1.3586   -6.9174   -2.8326 N.2       1 <0>        -0.4780
     14 C10         1.4356   -8.2212   -3.0240 C.2       1 <0>         0.0731
     15 C11         2.0712   -8.7029   -4.1287 C.2       1 <0>        -0.2081
     16 S1          2.5661   -7.1757   -4.9166 S.3       1 <0>         0.0398
     17 S2          2.3281  -10.3687   -4.6423 S.3       1 <0>         0.0531
     18 C12         3.2461  -10.2113   -6.1990 C.3       1 <0>        -0.0274
     19 C13         3.5345  -11.5828   -6.7529 C.2       1 <0>         0.1755
     20 N4          2.7695  -12.2464   -7.5720 N.2       1 <0>        -0.4462
     21 C14         3.3526  -13.4269   -7.8459 C.2       1 <0>        -0.0384
     22 C15         4.5108  -13.4766   -7.1674 C.2       1 <0>        -0.0059
     23 O2          4.6228  -12.3180   -6.4886 O.3       1 <0>        -0.1871
     24 C16         5.5012  -14.6125   -7.1690 C.3       1 <0>         0.0153
     25 C17         6.0046  -14.8482   -8.5945 C.3       1 <0>        -0.1426
     26 C18         6.6825  -14.2605   -6.2627 C.3       1 <0>        -0.1470
     27 C19         4.8220  -15.8821   -6.6515 C.3       1 <0>        -0.1428
     28 H1          1.0039    1.9031    0.0027 H         1 <0>         0.0511
     29 H2         -0.5459    1.8868   -0.8726 H         1 <0>         0.0725
     30 H3         -0.5289    1.8773    0.9072 H         1 <0>         0.0848
     31 H4          0.5293   -0.3651    0.8851 H         1 <0>         0.0903
     32 H5         -1.0205   -0.3814    0.0098 H         1 <0>         0.1146
     33 H6          0.2448   -0.0633   -2.1374 H         1 <0>         0.1426
     34 H7          1.0998   -2.4589   -0.4500 H         1 <0>         0.1020
     35 H8         -0.4204   -2.3236   -1.3674 H         1 <0>         0.1230
     36 H9          0.8403   -2.1178   -3.4736 H         1 <0>         0.1241
     37 H10         3.3118   -2.4539   -1.7116 H         1 <0>         0.1001
     38 H11         3.2956   -2.3152   -3.4869 H         1 <0>         0.1187
     39 H12         3.8354   -0.1378   -2.4288 H         1 <0>         0.1410
     40 H13         2.2869   -0.0583   -3.3019 H         1 <0>         0.1358
     41 H14         2.1835    0.9123   -1.1066 H         1 <0>         0.4304
     42 H15         2.3306   -4.1756   -4.3705 H         1 <0>         0.4268
     43 H16         0.9978   -8.9021   -2.3091 H         1 <0>         0.1793
     44 H17         2.6502   -9.6475   -6.9168 H         1 <0>         0.1328
     45 H18         4.1848   -9.6885   -6.0160 H         1 <0>         0.1204
     46 H19         2.9601  -14.1964   -8.4942 H         1 <0>         0.1891
     47 H20         6.4884  -13.9438   -8.9631 H         1 <0>         0.0607
     48 H21         6.7209  -15.6698   -8.5957 H         1 <0>         0.0750
     49 H22         5.1630  -15.0990   -9.2402 H         1 <0>         0.0648
     50 H23         6.3239  -14.0925   -5.2471 H         1 <0>         0.0616
     51 H24         7.3989  -15.0820   -6.2639 H         1 <0>         0.0706
     52 H25         7.1664  -13.3560   -6.6314 H         1 <0>         0.0605
     53 H26         3.9804  -16.1329   -7.2972 H         1 <0>         0.0649
     54 H27         5.5383  -16.7036   -6.6527 H         1 <0>         0.0751
     55 H28         4.4634  -15.7142   -5.6360 H         1 <0>         0.0617
     56 H29         2.5777   -0.5319   -0.4212 H         1 <0>         0.4277
@<TRIPOS>BOND
     1    1    2 1
     2    1   28 1
     3    1   29 1
     4    1   30 1
     5    2    3 1
     6    2   31 1
     7    2   32 1
     8    3    8 1
     9    3    4 1
    10    3   33 1
    11    4    5 1
    12    4   34 1
    13    4   35 1
    14    5    6 1
    15    5    9 1
    16    5   36 1
    17    6    7 1
    18    6   37 1
    19    6   38 1
    20    7    8 1
    21    7   39 1
    22    7   40 1
    23    8   41 1
    24    8   56 1
    25    9   10 2
    26    9   11 am
    27   11   12 1
    28   11   42 1
    29   12   16 1
    30   12   13 2
    31   13   14 1
    32   14   15 2
    33   14   43 1
    34   15   16 1
    35   15   17 1
    36   17   18 1
    37   18   19 1
    38   18   44 1
    39   18   45 1
    40   19   23 1
    41   19   20 2
    42   20   21 1
    43   21   22 2
    44   21   46 1
    45   22   23 1
    46   22   24 1
    47   24   25 1
    48   24   26 1
    49   24   27 1
    50   25   47 1
    51   25   48 1
    52   25   49 1
    53   26   50 1
    54   26   51 1
    55   26   52 1
    56   27   53 1
    57   27   54 1
    58   27   55 1
@<TRIPOS>MOLECULE
CHEMBL455195
   56    58     0     0     0
SMALL
USER_CHARGES

@<TRIPOS>ATOM
      1 C1         -0.0187    1.5258    0.0104 C.3       1 <0>        -0.1737
      2 C2          0.0021   -0.0041    0.0020 C.3       1 <0>        -0.1488
      3 C3          0.7182   -0.4975   -1.2568 C.3       1 <0>         0.0303
      4 C4          0.8524   -2.0208   -1.2026 C.3       1 <0>        -0.1254
      5 C5          1.5698   -2.5099   -2.4641 C.3       1 <0>        -0.1146
      6 C6          0.7921   -2.0392   -3.6965 C.3       1 <0>        -0.1461
      7 C7          0.6602   -0.5152   -3.6583 C.3       1 <0>        -0.0023
      8 N1         -0.0569   -0.1128   -2.4425 N.4       1 <0>        -0.5074
      9 C8          1.6359   -4.0154   -2.4545 C.2       1 <0>         0.5116
     10 O1          1.1568   -4.6377   -1.5302 O.2       1 <0>        -0.4546
     11 N2          2.2275   -4.6703   -3.4731 N.am      1 <0>        -0.6144
     12 C9          2.2887   -6.0611   -3.4643 C.2       1 <0>         0.3101
     13 N3          1.8286   -6.9129   -2.5670 N.2       1 <0>        -0.4781
     14 C10         1.9753   -8.2159   -2.7191 C.2       1 <0>         0.0731
     15 C11         2.6136   -8.6970   -3.8224 C.2       1 <0>        -0.2080
     16 S1          3.0043   -7.1711   -4.6691 S.3       1 <0>         0.0397
     17 S2          2.9536  -10.3617   -4.2892 S.3       1 <0>         0.0530
     18 C12         3.8280  -10.2042   -5.8708 C.3       1 <0>        -0.0274
     19 C13         4.1819  -11.5747   -6.3878 C.2       1 <0>         0.1755
     20 N4          3.4386  -12.3066   -7.1678 N.2       1 <0>        -0.4465
     21 C14         4.0817  -13.4608   -7.4177 C.2       1 <0>        -0.0387
     22 C15         5.2550  -13.4235   -6.7648 C.2       1 <0>        -0.0056
     23 O2          5.3155  -12.2388   -6.1255 O.3       1 <0>        -0.1869
     24 C16         6.3080  -14.5016   -6.7535 C.3       1 <0>         0.0152
     25 C17         6.7936  -14.7552   -8.1821 C.3       1 <0>        -0.1425
     26 C18         7.4864  -14.0545   -5.8861 C.3       1 <0>        -0.1471
     27 C19         5.7130  -15.7896   -6.1809 C.3       1 <0>        -0.1427
     28 H1          1.0039    1.9031    0.0027 H         1 <0>         0.0724
     29 H2         -0.5459    1.8868   -0.8726 H         1 <0>         0.0511
     30 H3         -0.5289    1.8773    0.9072 H         1 <0>         0.0848
     31 H4          0.5293   -0.3651    0.8851 H         1 <0>         0.1145
     32 H5         -1.0205   -0.3814    0.0098 H         1 <0>         0.0903
     33 H6          1.7098   -0.0480   -1.3099 H         1 <0>         0.1425
     34 H7          1.4297   -2.3043   -0.3225 H         1 <0>         0.1230
     35 H8         -0.1386   -2.4718   -1.1494 H         1 <0>         0.1020
     36 H9          2.5793   -2.0996   -2.4915 H         1 <0>         0.1240
     37 H10         1.3264   -2.3358   -4.5991 H         1 <0>         0.1187
     38 H11        -0.2000   -2.4906   -3.6951 H         1 <0>         0.1002
     39 H12         1.6528   -0.0649   -3.6600 H         1 <0>         0.1358
     40 H13         0.1072   -0.1768   -4.5346 H         1 <0>         0.1411
     41 H14        -0.9566   -0.5689   -2.4174 H         1 <0>         0.4278
     42 H15         2.6107   -4.1727   -4.2123 H         1 <0>         0.4268
     43 H16         1.5920   -8.8965   -1.9732 H         1 <0>         0.1793
     44 H17         3.1860   -9.6984   -6.5920 H         1 <0>         0.1326
     45 H18         4.7393   -9.6240   -5.7259 H         1 <0>         0.1207
     46 H19         3.7199  -14.2719   -8.0323 H         1 <0>         0.1890
     47 H20         7.2175  -13.8376   -8.5900 H         1 <0>         0.0608
     48 H21         7.5551  -15.5350   -8.1739 H         1 <0>         0.0751
     49 H22         5.9540  -15.0737   -8.8000 H         1 <0>         0.0647
     50 H23         7.1404  -13.8738   -4.8684 H         1 <0>         0.0617
     51 H24         8.2479  -14.8343   -5.8780 H         1 <0>         0.0706
     52 H25         7.9103  -13.1369   -6.2941 H         1 <0>         0.0606
     53 H26         4.8734  -16.1081   -6.7989 H         1 <0>         0.0648
     54 H27         6.4745  -16.5694   -6.1727 H         1 <0>         0.0752
     55 H28         5.3670  -15.6089   -5.1632 H         1 <0>         0.0617
     56 H29        -0.1891    0.8875   -2.4466 H         1 <0>         0.4304
@<TRIPOS>BOND
     1    1    2 1
     2    1   28 1
     3    1   29 1
     4    1   30 1
     5    2    3 1
     6    2   31 1
     7    2   32 1
     8    3    8 1
     9    3    4 1
    10    3   33 1
    11    4    5 1
    12    4   34 1
    13    4   35 1
    14    5    6 1
    15    5    9 1
    16    5   36 1
    17    6    7 1
    18    6   37 1
    19    6   38 1
    20    7    8 1
    21    7   39 1
    22    7   40 1
    23    8   41 1
    24    8   56 1
    25    9   10 2
    26    9   11 am
    27   11   12 1
    28   11   42 1
    29   12   16 1
    30   12   13 2
    31   13   14 1
    32   14   15 2
    33   14   43 1
    34   15   16 1
    35   15   17 1
    36   17   18 1
    37   18   19 1
    38   18   44 1
    39   18   45 1
    40   19   23 1
    41   19   20 2
    42   20   21 1
    43   21   22 2
    44   21   46 1
    45   22   23 1
    46   22   24 1
    47   24   25 1
    48   24   26 1
    49   24   27 1
    50   25   47 1
    51   25   48 1
    52   25   49 1
    53   26   50 1
    54   26   51 1
    55   26   52 1
    56   27   53 1
    57   27   54 1
    58   27   55 1
@<TRIPOS>MOLECULE
CHEMBL455195
   56    58     0     0     0
SMALL
USER_CHARGES

@<TRIPOS>ATOM
      1 C1         -0.0187    1.5258    0.0104 C.3       1 <0>        -0.1736
      2 C2          0.0021   -0.0041    0.0020 C.3       1 <0>        -0.1434
      3 C3          0.7182   -0.4975   -1.2568 C.3       1 <0>         0.0131
      4 C4          0.8524   -2.0208   -1.2026 C.3       1 <0>        -0.1193
      5 C5          1.5698   -2.5099   -2.4641 C.3       1 <0>        -0.1188
      6 C6          0.7921   -2.0392   -3.6965 C.3       1 <0>        -0.1411
      7 C7          0.6602   -0.5152   -3.6583 C.3       1 <0>        -0.0125
      8 N1         -0.0569   -0.1128   -2.4425 N.4       1 <0>        -0.5034
      9 C8          2.9655   -1.9427   -2.5019 C.2       1 <0>         0.5046
     10 O1          3.3502   -1.2183   -1.6084 O.2       1 <0>        -0.4647
     11 N2          3.7862   -2.2404   -3.5287 N.am      1 <0>        -0.6121
     12 C9          5.0755   -1.7165   -3.5637 C.2       1 <0>         0.3026
     13 N3          5.6801   -0.9240   -2.6983 N.2       1 <0>        -0.4762
     14 C10         6.9213   -0.5179   -2.8905 C.2       1 <0>         0.0693
     15 C11         7.5969   -0.9217   -4.0026 C.2       1 <0>        -0.2053
     16 S1          6.3576   -1.9435   -4.7887 S.3       1 <0>         0.0455
     17 S2          9.2391   -0.5466   -4.5196 S.3       1 <0>         0.0550
     18 C12         9.4211   -1.4419   -6.0868 C.3       1 <0>        -0.0274
     19 C13        10.8007   -1.2032   -6.6443 C.2       1 <0>         0.1740
     20 N4         11.8526   -1.9330   -6.4042 N.2       1 <0>        -0.4453
     21 C14        12.8981   -1.4156   -7.0733 C.2       1 <0>        -0.0382
     22 C15        12.4606   -0.3351   -7.7408 C.2       1 <0>        -0.0051
     23 O2         11.1460   -0.2090   -7.4732 O.3       1 <0>        -0.1873
     24 C16        13.2842    0.5640   -8.6265 C.3       1 <0>         0.0152
     25 C17        13.8722   -0.2540   -9.7780 C.3       1 <0>        -0.1428
     26 C18        12.3969    1.6752   -9.1913 C.3       1 <0>        -0.1469
     27 C19        14.4195    1.1838   -7.8094 C.3       1 <0>        -0.1429
     28 H1          1.0039    1.9031    0.0027 H         1 <0>         0.0732
     29 H2         -0.5459    1.8868   -0.8726 H         1 <0>         0.0495
     30 H3         -0.5289    1.8773    0.9072 H         1 <0>         0.0839
     31 H4          0.5293   -0.3651    0.8851 H         1 <0>         0.1132
     32 H5         -1.0205   -0.3814    0.0098 H         1 <0>         0.0869
     33 H6          1.7098   -0.0480   -1.3099 H         1 <0>         0.1582
     34 H7          1.4297   -2.3043   -0.3225 H         1 <0>         0.1223
     35 H8         -0.1386   -2.4718   -1.1494 H         1 <0>         0.1035
     36 H9          1.6176   -3.5988   -2.4572 H         1 <0>         0.1378
     37 H10         1.3264   -2.3358   -4.5991 H         1 <0>         0.1169
     38 H11        -0.2000   -2.4906   -3.6951 H         1 <0>         0.1116
     39 H12         1.6528   -0.0649   -3.6600 H         1 <0>         0.1260
     40 H13         0.1072   -0.1768   -4.5346 H         1 <0>         0.1423
     41 H14        -0.9566   -0.5689   -2.4174 H         1 <0>         0.4244
     42 H15         3.4785   -2.8198   -4.2433 H         1 <0>         0.4293
     43 H16         7.3983    0.1308   -2.1707 H         1 <0>         0.1793
     44 H17         9.2783   -2.5086   -5.9145 H         1 <0>         0.1333
     45 H18         8.6753   -1.0856   -6.7974 H         1 <0>         0.1207
     46 H19        13.9076   -1.7995   -7.0736 H         1 <0>         0.1894
     47 H20        13.0633   -0.6955  -10.3601 H         1 <0>         0.0609
     48 H21        14.4678    0.3964  -10.4186 H         1 <0>         0.0753
     49 H22        14.5043   -1.0456   -9.3756 H         1 <0>         0.0650
     50 H23        11.9779    2.2579   -8.3709 H         1 <0>         0.0613
     51 H24        12.9925    2.3255   -9.8319 H         1 <0>         0.0708
     52 H25        11.5880    1.2336   -9.7734 H         1 <0>         0.0605
     53 H26        15.0517    0.3922   -7.4070 H         1 <0>         0.0650
     54 H27        15.0152    1.8341   -8.4499 H         1 <0>         0.0753
     55 H28        14.0006    1.7666   -6.9890 H         1 <0>         0.0615
     56 H29        -0.1891    0.8875   -2.4466 H         1 <0>         0.4296
@<TRIPOS>BOND
     1    1    2 1
     2    1   28 1
     3    1   29 1
     4    1   30 1
     5    2    3 1
     6    2   31 1
     7    2   32 1
     8    3    8 1
     9    3    4 1
    10    3   33 1
    11    4    5 1
    12    4   34 1
    13    4   35 1
    14    5    6 1
    15    5    9 1
    16    5   36 1
    17    6    7 1
    18    6   37 1
    19    6   38 1
    20    7    8 1
    21    7   39 1
    22    7   40 1
    23    8   41 1
    24    8   56 1
    25    9   10 2
    26    9   11 am
    27   11   12 1
    28   11   42 1
    29   12   16 1
    30   12   13 2
    31   13   14 1
    32   14   15 2
    33   14   43 1
    34   15   16 1
    35   15   17 1
    36   17   18 1
    37   18   19 1
    38   18   44 1
    39   18   45 1
    40   19   23 1
    41   19   20 2
    42   20   21 1
    43   21   22 2
    44   21   46 1
    45   22   23 1
    46   22   24 1
    47   24   25 1
    48   24   26 1
    49   24   27 1
    50   25   47 1
    51   25   48 1
    52   25   49 1
    53   26   50 1
    54   26   51 1
    55   26   52 1
    56   27   53 1
    57   27   54 1
    58   27   55 1
@<TRIPOS>MOLECULE
CHEMBL549675
   70    74     0     0     0
SMALL
USER_CHARGES

@<TRIPOS>ATOM
      1 C1         -0.9471    1.0364    1.6147 C.3       1 <0>        -0.1474
      2 C2         -0.7149   -0.4545    1.3612 C.3       1 <0>         0.0121
      3 C3         -0.3408   -0.6688   -0.1059 C.3       1 <0>        -0.0574
      4 C4          0.2314   -2.0335   -0.3573 C.ar      1 <0>        -0.2053
      5 C5         -0.0157   -2.6975   -1.5443 C.ar      1 <0>         0.1958
      6 N1          0.5281   -3.8889   -1.7416 N.ar      1 <0>        -0.5529
      7 C6          1.3053   -4.4535   -0.8282 C.ar      1 <0>         0.5591
      8 N2          1.5617   -3.8587    0.3293 N.ar      1 <0>        -0.5543
      9 C7          1.0360   -2.6728    0.5967 C.ar      1 <0>         0.2960
     10 C8          1.2177   -1.9932    1.8910 C.2       1 <0>         0.0347
     11 C9          0.3960   -0.9439    2.2438 C.2       1 <0>        -0.1114
     12 C10         0.8376   -0.5259    3.4996 C.2       1 <0>         0.0035
     13 N3          1.8403   -1.3203    3.8441 N.2       1 <0>        -0.2420
     14 N4          2.0652   -2.1923    2.9191 N.pl3     1 <0>        -0.2456
     15 C11         3.0872   -3.2401    2.9786 C.3       1 <0>         0.0826
     16 C12         0.2904    0.5924    4.2951 C.2       1 <0>         0.6120
     17 O1         -0.7697    0.4635    4.8760 O.2       1 <0>        -0.5169
     18 N5          0.9665    1.7554    4.3768 N.am      1 <0>        -0.7212
     19 C13         0.4239    2.8643    5.1656 C.3       1 <0>         0.0856
     20 N6          1.8629   -5.6947   -1.0887 N.pl3     1 <0>        -0.6398
     21 C14         1.6946   -6.2872   -2.3439 C.ar      1 <0>         0.1827
     22 C15         1.6335   -5.4965   -3.4842 C.ar      1 <0>        -0.1147
     23 C16         1.4677   -6.0849   -4.7226 C.ar      1 <0>        -0.0953
     24 C17         1.3625   -7.4597   -4.8280 C.ar      1 <0>        -0.1178
     25 C18         1.4225   -8.2498   -3.6946 C.ar      1 <0>        -0.0693
     26 C19         1.5939   -7.6681   -2.4538 C.ar      1 <0>        -0.1486
     27 C20         1.1816   -8.0984   -6.1810 C.3       1 <0>         0.1015
     28 N7          2.4976   -8.4004   -6.7598 N.3       1 <0>        -0.5344
     29 C21         3.2377   -7.1661   -7.0577 C.3       1 <0>         0.0199
     30 C22         4.6225   -7.5240   -7.6019 C.3       1 <0>        -0.0024
     31 N8          4.4763   -8.3335   -8.8187 N.4       1 <0>        -0.3883
     32 C23         3.7569   -9.5739   -8.5003 C.3       1 <0>        -0.0021
     33 C24         2.3649   -9.2330   -7.9636 C.3       1 <0>         0.0244
     34 C25         5.8057   -8.6617   -9.3508 C.3       1 <0>        -0.0457
     35 C26        -1.9954   -1.2300    1.6774 C.3       1 <0>        -0.1393
     36 H1         -0.0062    1.5750    1.5018 H         1 <0>         0.0585
     37 H2         -1.6729    1.4183    0.8968 H         1 <0>         0.0684
     38 H3         -1.3276    1.1780    2.6263 H         1 <0>         0.0682
     39 H4         -1.2325   -0.5415   -0.7197 H         1 <0>         0.0911
     40 H5          0.3950    0.0813   -0.3957 H         1 <0>         0.0849
     41 H6         -0.6441   -2.2508   -2.3006 H         1 <0>         0.1781
     42 H7          4.0192   -2.8631    2.5574 H         1 <0>         0.0875
     43 H8          3.2491   -3.5312    4.0165 H         1 <0>         0.1006
     44 H9          2.7539   -4.1058    2.4062 H         1 <0>         0.1095
     45 H10         1.8123    1.8583    3.9132 H         1 <0>         0.4048
     46 H11         1.1043    3.7143    5.1136 H         1 <0>         0.0806
     47 H12        -0.5486    3.1525    4.7663 H         1 <0>         0.0651
     48 H13         0.3122    2.5512    6.2036 H         1 <0>         0.0646
     49 H14         2.3700   -6.1527   -0.4003 H         1 <0>         0.4251
     50 H15         1.7152   -4.4227   -3.4025 H         1 <0>         0.1366
     51 H16         1.4197   -5.4707   -5.6096 H         1 <0>         0.1196
     52 H17         1.3393   -9.3232   -3.7803 H         1 <0>         0.1272
     53 H18         1.6451   -8.2860   -1.5695 H         1 <0>         0.1281
     54 H19         0.6114   -9.0211   -6.0739 H         1 <0>         0.0957
     55 H20         0.6446   -7.4135   -6.8372 H         1 <0>         0.0548
     56 H21         2.6930   -6.5862   -7.8027 H         1 <0>         0.0602
     57 H22         3.3459   -6.5779   -6.1464 H         1 <0>         0.1269
     58 H23         5.1679   -6.6100   -7.8369 H         1 <0>         0.1346
     59 H24         5.1720   -8.0922   -6.8513 H         1 <0>         0.1370
     60 H25         3.6606  -10.1796   -9.4013 H         1 <0>         0.1356
     61 H26         4.3109  -10.1316   -7.7451 H         1 <0>         0.1373
     62 H27         1.8364  -10.1528   -7.7132 H         1 <0>         0.1240
     63 H28         1.8058   -8.6872   -8.7235 H         1 <0>         0.0607
     64 H29         6.3667   -9.2247   -8.6049 H         1 <0>         0.1228
     65 H30         5.6974   -9.2624  -10.2539 H         1 <0>         0.1241
     66 H31         6.3392   -7.7414   -9.5884 H         1 <0>         0.1238
     67 H32        -2.8031   -0.8738    1.0381 H         1 <0>         0.0664
     68 H33        -1.8307   -2.2923    1.4971 H         1 <0>         0.0502
     69 H34        -2.2645   -1.0764    2.7225 H         1 <0>         0.0673
     70 H35         3.9575   -7.8119   -9.5092 H         1 <0>         0.4223
@<TRIPOS>BOND
     1    1    2 1
     2    1   36 1
     3    1   37 1
     4    1   38 1
     5    2   11 1
     6    2    3 1
     7    2   35 1
     8    3    4 1
     9    3   39 1
    10    3   40 1
    11    4    9 ar
    12    4    5 ar
    13    5    6 ar
    14    5   41 1
    15    6    7 ar
    16    7    8 ar
    17    7   20 1
    18    8    9 ar
    19    9   10 1
    20   10   14 1
    21   10   11 2
    22   11   12 1
    23   12   13 2
    24   12   16 1
    25   13   14 1
    26   14   15 1
    27   15   42 1
    28   15   43 1
    29   15   44 1
    30   16   17 2
    31   16   18 am
    32   18   19 1
    33   18   45 1
    34   19   46 1
    35   19   47 1
    36   19   48 1
    37   20   21 1
    38   20   49 1
    39   21   26 ar
    40   21   22 ar
    41   22   23 ar
    42   22   50 1
    43   23   24 ar
    44   23   51 1
    45   24   25 ar
    46   24   27 1
    47   25   26 ar
    48   25   52 1
    49   26   53 1
    50   27   28 1
    51   27   54 1
    52   27   55 1
    53   28   33 1
    54   28   29 1
    55   29   30 1
    56   29   56 1
    57   29   57 1
    58   30   31 1
    59   30   58 1
    60   30   59 1
    61   31   32 1
    62   31   34 1
    63   31   70 1
    64   32   33 1
    65   32   60 1
    66   32   61 1
    67   33   62 1
    68   33   63 1
    69   34   64 1
    70   34   65 1
    71   34   66 1
    72   35   67 1
    73   35   68 1
    74   35   69 1
@<TRIPOS>MOLECULE
CHEMBL549675
   70    74     0     0     0
SMALL
USER_CHARGES

@<TRIPOS>ATOM
      1 C1         -0.9471    1.0364    1.6147 C.3       1 <0>        -0.1480
      2 C2         -0.7149   -0.4545    1.3612 C.3       1 <0>         0.0118
      3 C3         -0.3408   -0.6688   -0.1059 C.3       1 <0>        -0.0596
      4 C4          0.2314   -2.0335   -0.3573 C.ar      1 <0>        -0.1974
      5 C5         -0.0157   -2.6975   -1.5443 C.ar      1 <0>         0.1954
      6 N1          0.5281   -3.8889   -1.7416 N.ar      1 <0>        -0.5546
      7 C6          1.3053   -4.4535   -0.8282 C.ar      1 <0>         0.5540
      8 N2          1.5617   -3.8587    0.3293 N.ar      1 <0>        -0.5501
      9 C7          1.0360   -2.6728    0.5967 C.ar      1 <0>         0.2980
     10 C8          1.2177   -1.9932    1.8910 C.2       1 <0>         0.0309
     11 C9          0.3960   -0.9439    2.2438 C.2       1 <0>        -0.1093
     12 C10         0.8376   -0.5259    3.4996 C.2       1 <0>         0.0045
     13 N3          1.8403   -1.3203    3.8441 N.2       1 <0>        -0.2396
     14 N4          2.0652   -2.1923    2.9191 N.pl3     1 <0>        -0.2450
     15 C11         3.0872   -3.2401    2.9786 C.3       1 <0>         0.0823
     16 C12         0.2904    0.5924    4.2951 C.2       1 <0>         0.6112
     17 O1         -0.7697    0.4635    4.8760 O.2       1 <0>        -0.5164
     18 N5          0.9665    1.7554    4.3768 N.am      1 <0>        -0.7207
     19 C13         0.4239    2.8643    5.1656 C.3       1 <0>         0.0853
     20 N6          1.8629   -5.6947   -1.0887 N.pl3     1 <0>        -0.6400
     21 C14         1.6946   -6.2872   -2.3439 C.ar      1 <0>         0.2141
     22 C15         1.6335   -5.4965   -3.4842 C.ar      1 <0>        -0.1166
     23 C16         1.4677   -6.0849   -4.7226 C.ar      1 <0>        -0.0713
     24 C17         1.3625   -7.4597   -4.8280 C.ar      1 <0>        -0.1893
     25 C18         1.4225   -8.2498   -3.6946 C.ar      1 <0>        -0.0649
     26 C19         1.5939   -7.6681   -2.4538 C.ar      1 <0>        -0.1510
     27 C20         1.1816   -8.0984   -6.1810 C.3       1 <0>         0.0495
     28 N7          2.4976   -8.4004   -6.7598 N.4       1 <0>        -0.3852
     29 C21         3.2199   -7.1468   -7.0134 C.3       1 <0>        -0.0060
     30 C22         4.5983   -7.4617   -7.5988 C.3       1 <0>         0.0259
     31 N8          4.4354   -8.2151   -8.8502 N.3       1 <0>        -0.5432
     32 C23         3.6919   -9.4612   -8.6162 C.3       1 <0>         0.0243
     33 C24         2.3210   -9.1299   -8.0224 C.3       1 <0>        -0.0026
     34 C25         5.7372   -8.4880   -9.4737 C.3       1 <0>         0.0195
     35 C26        -1.9954   -1.2300    1.6774 C.3       1 <0>        -0.1396
     36 H1         -0.0062    1.5750    1.5018 H         1 <0>         0.0591
     37 H2         -1.6729    1.4183    0.8968 H         1 <0>         0.0692
     38 H3         -1.3276    1.1780    2.6263 H         1 <0>         0.0690
     39 H4         -1.2325   -0.5415   -0.7197 H         1 <0>         0.0929
     40 H5          0.3950    0.0813   -0.3957 H         1 <0>         0.0874
     41 H6         -0.6441   -2.2508   -2.3006 H         1 <0>         0.1808
     42 H7          4.0192   -2.8631    2.5574 H         1 <0>         0.0881
     43 H8          3.2491   -3.5312    4.0165 H         1 <0>         0.1014
     44 H9          2.7539   -4.1058    2.4062 H         1 <0>         0.1086
     45 H10         1.8123    1.8583    3.9132 H         1 <0>         0.4049
     46 H11        -0.5486    3.1525    4.7663 H         1 <0>         0.0654
     47 H12         0.3122    2.5512    6.2036 H         1 <0>         0.0650
     48 H13         1.1043    3.7143    5.1136 H         1 <0>         0.0811
     49 H14         2.3700   -6.1527   -0.4003 H         1 <0>         0.4286
     50 H15         1.7152   -4.4227   -3.4025 H         1 <0>         0.1461
     51 H16         1.4197   -5.4707   -5.6096 H         1 <0>         0.1332
     52 H17         1.3393   -9.3232   -3.7803 H         1 <0>         0.1337
     53 H18         1.6451   -8.2860   -1.5695 H         1 <0>         0.1370
     54 H19         0.6114   -9.0211   -6.0739 H         1 <0>         0.1358
     55 H20         0.6446   -7.4135   -6.8372 H         1 <0>         0.1354
     56 H21         2.6553   -6.5387   -7.7201 H         1 <0>         0.1369
     57 H22         3.3388   -6.6003   -6.0778 H         1 <0>         0.1357
     58 H23         5.1287   -6.5311   -7.8010 H         1 <0>         0.1221
     59 H24         5.1683   -8.0583   -6.8866 H         1 <0>         0.0590
     60 H25         3.5611   -9.9894   -9.5606 H         1 <0>         0.1235
     61 H26         4.2470  -10.0907   -7.9208 H         1 <0>         0.0596
     62 H27         1.7735  -10.0535   -7.8348 H         1 <0>         0.1359
     63 H28         1.7610   -8.5116   -8.7239 H         1 <0>         0.1381
     64 H29         6.3516   -9.0741   -8.7903 H         1 <0>         0.0389
     65 H30         5.5876   -9.0465  -10.3977 H         1 <0>         0.0837
     66 H31         6.2383   -7.5458   -9.6957 H         1 <0>         0.0838
     67 H32        -2.8031   -0.8738    1.0381 H         1 <0>         0.0672
     68 H33        -1.8307   -2.2923    1.4971 H         1 <0>         0.0495
     69 H34        -2.2645   -1.0764    2.7225 H         1 <0>         0.0682
     70 H35         3.0262   -8.9681   -6.1146 H         1 <0>         0.4189
@<TRIPOS>BOND
     1    1    2 1
     2    1   36 1
     3    1   37 1
     4    1   38 1
     5    2   11 1
     6    2    3 1
     7    2   35 1
     8    3    4 1
     9    3   39 1
    10    3   40 1
    11    4    9 ar
    12    4    5 ar
    13    5    6 ar
    14    5   41 1
    15    6    7 ar
    16    7    8 ar
    17    7   20 1
    18    8    9 ar
    19    9   10 1
    20   10   14 1
    21   10   11 2
    22   11   12 1
    23   12   13 2
    24   12   16 1
    25   13   14 1
    26   14   15 1
    27   15   42 1
    28   15   43 1
    29   15   44 1
    30   16   17 2
    31   16   18 am
    32   18   19 1
    33   18   45 1
    34   19   46 1
    35   19   47 1
    36   19   48 1
    37   20   21 1
    38   20   49 1
    39   21   26 ar
    40   21   22 ar
    41   22   23 ar
    42   22   50 1
    43   23   24 ar
    44   23   51 1
    45   24   25 ar
    46   24   27 1
    47   25   26 ar
    48   25   52 1
    49   26   53 1
    50   27   28 1
    51   27   54 1
    52   27   55 1
    53   28   33 1
    54   28   29 1
    55   28   70 1
    56   29   30 1
    57   29   56 1
    58   29   57 1
    59   30   31 1
    60   30   58 1
    61   30   59 1
    62   31   32 1
    63   31   34 1
    64   32   33 1
    65   32   60 1
    66   32   61 1
    67   33   62 1
    68   33   63 1
    69   34   64 1
    70   34   65 1
    71   34   66 1
    72   35   67 1
    73   35   68 1
    74   35   69 1
@<TRIPOS>MOLECULE
CHEMBL361894
   40    44     0     0     0
SMALL
USER_CHARGES

@<TRIPOS>ATOM
      1 C1          0.0839    1.4554   -1.0795 C.2       1 <0>        -0.1582
      2 C2          1.2285    2.1367   -0.7818 C.2       1 <0>        -0.0249
      3 C3          2.4230    1.4233   -0.6203 C.2       1 <0>         0.0975
      4 C4          3.7406    1.8030   -0.3204 C.2       1 <0>        -0.1965
      5 C5          4.5079    0.6345   -0.2913 C.2       1 <0>         0.0985
      6 N1          3.7305   -0.3907   -0.5521 N.2       1 <0>        -0.2502
      7 N2          2.4229    0.0598   -0.7630 N.pl3     1 <0>        -0.1751
      8 N3          1.2286   -0.6036   -1.0682 N.2       1 <0>        -0.2137
      9 C6          0.1144    0.0647   -1.2190 C.2       1 <0>         0.1194
     10 C7          4.2253    3.1778   -0.0812 C.ar      1 <0>         0.3101
     11 C8          5.5759    3.4167    0.2046 C.ar      1 <0>        -0.2755
     12 C9          5.9820    4.7188    0.4210 C.ar      1 <0>         0.1963
     13 N4          5.0903    5.6965    0.3527 N.ar      1 <0>        -0.5636
     14 C10         3.8183    5.4434    0.0806 C.ar      1 <0>         0.5703
     15 N5          3.3856    4.2117   -0.1391 N.ar      1 <0>        -0.5731
     16 N6          2.9193    6.4952    0.0189 N.pl3     1 <0>        -0.6387
     17 C11         3.3766    7.8143    0.1269 C.ar      1 <0>         0.1720
     18 C12         4.5657    8.1897   -0.4841 C.ar      1 <0>        -0.1022
     19 C13         5.0178    9.4905   -0.3766 C.ar      1 <0>        -0.0925
     20 C14         4.2862   10.4255    0.3406 C.ar      1 <0>         0.0355
     21 C15         3.0942   10.0537    0.9510 C.ar      1 <0>         0.0707
     22 C16         2.6389    8.7487    0.8400 C.ar      1 <0>        -0.1403
     23 O1          2.3587   10.9592    1.6524 O.3       1 <0>        -0.3071
     24 C17         3.0270   12.1606    2.0517 C.3       1 <0>         0.0210
     25 C18         3.8073   12.7002    0.8454 C.3       1 <0>         0.0203
     26 O2          4.7503   11.7025    0.4390 O.3       1 <0>        -0.3069
     27 H1         -0.8463    1.9902   -1.2029 H         1 <0>         0.1609
     28 H2          1.2135    3.2110   -0.6727 H         1 <0>         0.1704
     29 H3          5.5673    0.5837   -0.0878 H         1 <0>         0.2094
     30 H4         -0.7962   -0.4661   -1.4543 H         1 <0>         0.2090
     31 H5          6.2828    2.6017    0.2548 H         1 <0>         0.1473
     32 H6          7.0158    4.9379    0.6439 H         1 <0>         0.1723
     33 H7          1.9730    6.3182   -0.0992 H         1 <0>         0.4226
     34 H8          5.1376    7.4641   -1.0435 H         1 <0>         0.1377
     35 H9          5.9433    9.7802   -0.8518 H         1 <0>         0.1384
     36 H10         1.7119    8.4584    1.3120 H         1 <0>         0.1367
     37 H11         2.2935   12.8991    2.3753 H         1 <0>         0.1231
     38 H12         3.7160   11.9440    2.8681 H         1 <0>         0.0787
     39 H13         3.1191   12.9107    0.0267 H         1 <0>         0.0777
     40 H14         4.3347   13.6117    1.1265 H         1 <0>         0.1227
@<TRIPOS>BOND
     1    1    9 1
     2    1    2 2
     3    1   27 1
     4    2    3 1
     5    2   28 1
     6    3    7 1
     7    3    4 2
     8    4    5 1
     9    4   10 1
    10    5    6 2
    11    5   29 1
    12    6    7 1
    13    7    8 1
    14    8    9 2
    15    9   30 1
    16   10   15 ar
    17   10   11 ar
    18   11   12 ar
    19   11   31 1
    20   12   13 ar
    21   12   32 1
    22   13   14 ar
    23   14   15 ar
    24   14   16 1
    25   16   17 1
    26   16   33 1
    27   17   22 ar
    28   17   18 ar
    29   18   19 ar
    30   18   34 1
    31   19   20 ar
    32   19   35 1
    33   20   26 1
    34   20   21 ar
    35   21   22 ar
    36   21   23 1
    37   22   36 1
    38   23   24 1
    39   24   25 1
    40   24   37 1
    41   24   38 1
    42   25   26 1
    43   25   39 1
    44   25   40 1
@<TRIPOS>MOLECULE
CHEMBL189657
   27    29     0     0     0
SMALL
USER_CHARGES

@<TRIPOS>ATOM
      1 C1         -0.0187    1.5258    0.0104 C.3       1 <0>        -0.1679
      2 C2          0.0021   -0.0041    0.0020 C.3       1 <0>         0.0954
      3 N1          0.7106   -0.4894    1.1889 N.pl3     1 <0>        -0.4586
      4 C3          2.0584   -0.7382    1.2887 C.ar      1 <0>         0.0953
      5 C4          3.1441   -0.6442    0.4249 C.ar      1 <0>        -0.1599
      6 C5          4.3944   -0.9918    0.8886 C.ar      1 <0>         0.1093
      7 N2          4.5749   -1.4091    2.1309 N.ar      1 <0>        -0.4816
      8 C6          3.5837   -1.5168    2.9898 C.ar      1 <0>         0.1908
      9 C7          2.2816   -1.1862    2.6071 C.ar      1 <0>        -0.0056
     10 N3          1.0829   -1.1887    3.2341 N.2       1 <0>        -0.4408
     11 C8          0.1540   -0.7741    2.4081 C.2       1 <0>         0.3262
     12 C9         -1.2813   -0.6375    2.7409 C.2       1 <0>         0.1367
     13 C10        -1.8949   -0.9319    4.0419 C.2       1 <0>         0.3640
     14 N4         -3.1744   -0.6925    3.9551 N.2       1 <0>        -0.3494
     15 O1         -3.4467   -0.2461    2.6387 O.3       1 <0>         0.0433
     16 N5         -2.2212   -0.2283    1.9283 N.2       1 <0>        -0.2499
     17 N6         -1.2275   -1.3871    5.1714 N.pl3     1 <0>        -0.8010
     18 H1          1.0039    1.9031    0.0027 H         1 <0>         0.0643
     19 H2         -0.5459    1.8868   -0.8726 H         1 <0>         0.0868
     20 H3         -0.5289    1.8773    0.9072 H         1 <0>         0.0636
     21 H4         -1.0205   -0.3814    0.0098 H         1 <0>         0.1084
     22 H5          0.5123   -0.3556   -0.8948 H         1 <0>         0.1005
     23 H6          3.0097   -0.3052   -0.5916 H         1 <0>         0.1391
     24 H7          5.2434   -0.9223    0.2248 H         1 <0>         0.1686
     25 H8          3.7777   -1.8625    3.9944 H         1 <0>         0.1722
     26 H9         -0.2697   -1.5373    5.1412 H         1 <0>         0.4311
     27 H10        -1.7192   -1.5549    5.9905 H         1 <0>         0.4192
@<TRIPOS>BOND
     1    1    2 1
     2    1   18 1
     3    1   19 1
     4    1   20 1
     5    2    3 1
     6    2   21 1
     7    2   22 1
     8    3   11 1
     9    3    4 1
    10    4    9 ar
    11    4    5 ar
    12    5    6 ar
    13    5   23 1
    14    6    7 ar
    15    6   24 1
    16    7    8 ar
    17    8    9 ar
    18    8   25 1
    19    9   10 1
    20   10   11 2
    21   11   12 1
    22   12   16 2
    23   12   13 1
    24   13   14 2
    25   13   17 1
    26   14   15 1
    27   15   16 1
    28   17   26 1
    29   17   27 1
@<TRIPOS>MOLECULE
CHEMBL189657
   28    30     0     0     0
SMALL
USER_CHARGES

@<TRIPOS>ATOM
      1 C1         -0.0187    1.5258    0.0104 C.3       1 <0>        -0.1728
      2 C2          0.0021   -0.0041    0.0020 C.3       1 <0>         0.0814
      3 N1          0.6878   -0.4765   -1.2033 N.pl3     1 <0>        -0.4408
      4 C3          0.1070   -0.7443   -2.4196 C.ar      1 <0>         0.1317
      5 C4         -1.1858   -0.6845   -2.9283 C.ar      1 <0>        -0.0842
      6 C5         -1.4004   -1.0421   -4.2417 C.ar      1 <0>         0.1004
      7 N2         -0.4046   -1.4373   -5.0177 N.ar      1 <0>        -0.4406
      8 C6          0.8371   -1.5124   -4.5883 C.ar      1 <0>         0.2321
      9 C7          1.1482   -1.1693   -3.2704 C.ar      1 <0>         0.0291
     10 N3          2.2901   -1.1405   -2.5458 N.2       1 <0>        -0.4306
     11 C8          2.0287   -0.7282   -1.3297 C.2       1 <0>         0.3938
     12 C9          3.0306   -0.5626   -0.2536 C.2       1 <0>         0.1055
     13 C10         4.4711   -0.8213   -0.3716 C.2       1 <0>         0.3642
     14 N4          5.0293   -0.5638    0.7790 N.2       1 <0>        -0.3298
     15 O1          4.0145   -0.1396    1.6714 O.3       1 <0>         0.0696
     16 N5          2.7866   -0.1551    0.9652 N.2       1 <0>        -0.2289
     17 N6          5.1270   -1.2642   -1.5127 N.pl3     1 <0>        -0.8009
     18 H1          1.0039    1.9031    0.0027 H         1 <0>         0.0697
     19 H2         -0.5459    1.8868   -0.8726 H         1 <0>         0.0677
     20 H3         -0.5289    1.8773    0.9072 H         1 <0>         0.1013
     21 H4          0.5293   -0.3651    0.8851 H         1 <0>         0.1239
     22 H5         -1.0205   -0.3814    0.0098 H         1 <0>         0.1160
     23 H6         -2.0074   -0.3639   -2.3049 H         1 <0>         0.1861
     24 H7         -2.4012   -0.9992   -4.6454 H         1 <0>         0.2182
     25 H8          1.6187   -1.8409   -5.2574 H         1 <0>         0.2244
     26 H9          4.6260   -1.4299   -2.3266 H         1 <0>         0.4275
     27 H10         6.0861   -1.4079   -1.4959 H         1 <0>         0.4254
     28 H11        -0.5967   -1.6810   -5.9367 H         1 <0>         0.4605
@<TRIPOS>BOND
     1    1    2 1
     2    1   18 1
     3    1   19 1
     4    1   20 1
     5    2    3 1
     6    2   21 1
     7    2   22 1
     8    3   11 1
     9    3    4 1
    10    4    9 ar
    11    4    5 ar
    12    5    6 ar
    13    5   23 1
    14    6    7 ar
    15    6   24 1
    16    7    8 ar
    17    7   28 1
    18    8    9 ar
    19    8   25 1
    20    9   10 1
    21   10   11 2
    22   11   12 1
    23   12   16 2
    24   12   13 1
    25   13   14 2
    26   13   17 1
    27   14   15 1
    28   15   16 1
    29   17   26 1
    30   17   27 1
@<TRIPOS>MOLECULE
CHEMBL1169805
   73    78     0     0     0
SMALL
USER_CHARGES

@<TRIPOS>ATOM
      1 C1          0.0991    2.7079   -1.2828 C.3       1 <0>        -0.1077
      2 C2          0.1699    1.2334   -0.9795 C.ar      1 <0>         0.1298
      3 C3          0.1387    0.3204   -2.0168 C.ar      1 <0>        -0.1539
      4 C4          0.2044   -1.0337   -1.7270 C.ar      1 <0>        -0.0632
      5 C5          0.2996   -1.4205   -0.3987 C.ar      1 <0>        -0.1614
      6 C6          0.3255   -0.4504    0.5849 C.ar      1 <0>         0.1060
      7 N1          0.2664    0.8295    0.2719 N.ar      1 <0>        -0.4790
      8 C7          0.1727   -2.0609   -2.8292 C.3       1 <0>         0.1613
      9 N2          1.5402   -2.3451   -3.2714 N.am      1 <0>        -0.7138
     10 C8          1.7579   -3.2396   -4.2557 C.2       1 <0>         0.6088
     11 O1          0.8196   -3.8106   -4.7766 O.2       1 <0>        -0.5224
     12 C9          3.1370   -3.5262   -4.7016 C.2       1 <0>        -0.0102
     13 C10         3.5151   -4.4172   -5.7065 C.2       1 <0>        -0.0990
     14 C11         4.8890   -4.3405   -5.7743 C.2       1 <0>         0.0257
     15 N3          5.2816   -3.4550   -4.8368 N.pl3     1 <0>        -0.2381
     16 N4          4.2472   -2.9812   -4.2266 N.2       1 <0>        -0.2433
     17 C12         6.6706   -3.0830   -4.5565 C.3       1 <0>         0.0815
     18 C13         5.6307   -5.1394   -6.7648 C.ar      1 <0>         0.2966
     19 C14         4.8873   -5.7344   -7.7955 C.ar      1 <0>        -0.2108
     20 C15         5.5632   -6.5224   -8.7078 C.ar      1 <0>         0.1956
     21 N5          6.8764   -6.6564   -8.5963 N.ar      1 <0>        -0.5568
     22 C16         7.5533   -6.0477   -7.6331 C.ar      1 <0>         0.5616
     23 N6          6.9448   -5.2939   -6.7265 N.ar      1 <0>        -0.5567
     24 N7          8.9283   -6.2021   -7.5713 N.pl3     1 <0>        -0.6400
     25 C17         9.6015   -6.8955   -8.5855 C.ar      1 <0>         0.1354
     26 C18         9.1975   -6.7577   -9.9069 C.ar      1 <0>        -0.0622
     27 C19         9.8607   -7.4414  -10.9065 C.ar      1 <0>        -0.1634
     28 C20        10.9321   -8.2665  -10.5904 C.ar      1 <0>         0.1801
     29 C21        11.3364   -8.4039   -9.2690 C.ar      1 <0>        -0.1625
     30 C22        10.6764   -7.7160   -8.2701 C.ar      1 <0>        -0.0981
     31 N8         11.6041   -8.9599  -11.6035 N.pl3     1 <0>        -0.6455
     32 C23        12.6574   -9.9353  -11.2822 C.3       1 <0>         0.1006
     33 C24        12.3577  -11.2381  -12.0310 C.3       1 <0>        -0.0233
     34 N9         12.2106  -10.9550  -13.4642 N.4       1 <0>        -0.3836
     35 C25        11.0423  -10.0939  -13.6866 C.3       1 <0>        -0.0232
     36 C26        11.2729   -8.7385  -13.0196 C.3       1 <0>         0.0993
     37 C27        12.0328  -12.2169  -14.1950 C.3       1 <0>        -0.0471
     38 C28         3.4134   -5.4893   -7.9376 C.3       1 <0>        -0.0653
     39 C29         2.7128   -5.3294   -6.5882 C.3       1 <0>        -0.0507
     40 H1          1.1068    3.0987   -1.4235 H         1 <0>         0.0799
     41 H2         -0.4815    2.8644   -2.1919 H         1 <0>         0.0766
     42 H3         -0.3792    3.2271   -0.4523 H         1 <0>         0.0799
     43 H4          0.0636    0.6576   -3.0400 H         1 <0>         0.1372
     44 H5          0.3524   -2.4668   -0.1363 H         1 <0>         0.1377
     45 H6          0.3995   -0.7434    1.6218 H         1 <0>         0.1598
     46 H7         -0.2872   -2.9771   -2.4589 H         1 <0>         0.0863
     47 H8         -0.4078   -1.6762   -3.6678 H         1 <0>         0.0859
     48 H9          2.2889   -1.8894   -2.8557 H         1 <0>         0.4091
     49 H10         6.9511   -2.2319   -5.1769 H         1 <0>         0.0885
     50 H11         6.7695   -2.8143   -3.5048 H         1 <0>         0.1008
     51 H12         7.3245   -3.9262   -4.7791 H         1 <0>         0.1109
     52 H13         5.0277   -7.0227   -9.5011 H         1 <0>         0.1769
     53 H14         9.4251   -5.8301   -6.8259 H         1 <0>         0.4242
     54 H15         8.3643   -6.1160  -10.1527 H         1 <0>         0.1341
     55 H16         9.5460   -7.3348  -11.9342 H         1 <0>         0.1253
     56 H17        12.1696   -9.0455   -9.0231 H         1 <0>         0.1266
     57 H18        10.9936   -7.8194   -7.2429 H         1 <0>         0.1305
     58 H19        13.6255   -9.5461  -11.5973 H         1 <0>         0.0868
     59 H20        12.6669  -10.1237  -10.2086 H         1 <0>         0.1257
     60 H21        13.1780  -11.9402  -11.8814 H         1 <0>         0.1404
     61 H22        11.4335  -11.6722  -11.6495 H         1 <0>         0.1323
     62 H23        10.8933   -9.9528  -14.7571 H         1 <0>         0.1408
     63 H24        10.1579  -10.5626  -13.2551 H         1 <0>         0.1324
     64 H25        10.3676   -8.1361  -13.0942 H         1 <0>         0.1267
     65 H26        12.0988   -8.2264  -13.5132 H         1 <0>         0.0866
     66 H27        11.1399  -12.7250  -13.8308 H         1 <0>         0.1215
     67 H28        11.9235  -12.0082  -15.2592 H         1 <0>         0.1250
     68 H29        12.9031  -12.8539  -14.0372 H         1 <0>         0.1249
     69 H30         3.2617   -4.5826   -8.5232 H         1 <0>         0.0831
     70 H31         2.9662   -6.3290   -8.4696 H         1 <0>         0.0897
     71 H32         2.6185   -6.3047   -6.1107 H         1 <0>         0.0841
     72 H33         1.7210   -4.9045   -6.7426 H         1 <0>         0.1045
     73 H34        13.0397  -10.4885  -13.8005 H         1 <0>         0.4246
@<TRIPOS>BOND
     1    1    2 1
     2    1   40 1
     3    1   41 1
     4    1   42 1
     5    2    7 ar
     6    2    3 ar
     7    3    4 ar
     8    3   43 1
     9    4    5 ar
    10    4    8 1
    11    5    6 ar
    12    5   44 1
    13    6    7 ar
    14    6   45 1
    15    8    9 1
    16    8   46 1
    17    8   47 1
    18    9   10 am
    19    9   48 1
    20   10   11 2
    21   10   12 1
    22   12   16 2
    23   12   13 1
    24   13   39 1
    25   13   14 2
    26   14   15 1
    27   14   18 1
    28   15   16 1
    29   15   17 1
    30   17   49 1
    31   17   50 1
    32   17   51 1
    33   18   23 ar
    34   18   19 ar
    35   19   20 ar
    36   19   38 1
    37   20   21 ar
    38   20   52 1
    39   21   22 ar
    40   22   23 ar
    41   22   24 1
    42   24   25 1
    43   24   53 1
    44   25   30 ar
    45   25   26 ar
    46   26   27 ar
    47   26   54 1
    48   27   28 ar
    49   27   55 1
    50   28   29 ar
    51   28   31 1
    52   29   30 ar
    53   29   56 1
    54   30   57 1
    55   31   36 1
    56   31   32 1
    57   32   33 1
    58   32   58 1
    59   32   59 1
    60   33   34 1
    61   33   60 1
    62   33   61 1
    63   34   35 1
    64   34   37 1
    65   34   73 1
    66   35   36 1
    67   35   62 1
    68   35   63 1
    69   36   64 1
    70   36   65 1
    71   37   66 1
    72   37   67 1
    73   37   68 1
    74   38   39 1
    75   38   69 1
    76   38   70 1
    77   39   71 1
    78   39   72 1
@<TRIPOS>MOLECULE
CHEMBL1169805
   72    77     0     0     0
SMALL
USER_CHARGES

@<TRIPOS>ATOM
      1 C1          0.0984    2.7073   -1.2828 C.3       1 <0>        -0.1071
      2 C2          0.1695    1.2328   -0.9794 C.ar      1 <0>         0.1287
      3 C3          0.1383    0.3196   -2.0166 C.ar      1 <0>        -0.1536
      4 C4          0.2042   -1.0344   -1.7266 C.ar      1 <0>        -0.0617
      5 C5          0.2996   -1.4210   -0.3983 C.ar      1 <0>        -0.1611
      6 C6          0.3255   -0.4508    0.5852 C.ar      1 <0>         0.1052
      7 N1          0.2662    0.8290    0.2721 N.ar      1 <0>        -0.4800
      8 C7          0.1726   -2.0617   -2.8287 C.3       1 <0>         0.1612
      9 N2          1.5400   -2.3457   -3.2710 N.am      1 <0>        -0.7154
     10 C8          1.7578   -3.2403   -4.2553 C.2       1 <0>         0.6104
     11 O1          0.8196   -3.8115   -4.7760 O.2       1 <0>        -0.5229
     12 C9          3.1369   -3.5267   -4.7013 C.2       1 <0>        -0.0128
     13 C10         3.5150   -4.4178   -5.7061 C.2       1 <0>        -0.1024
     14 C11         4.8889   -4.3409   -5.7741 C.2       1 <0>         0.0335
     15 N3          5.2814   -3.4553   -4.8367 N.pl3     1 <0>        -0.2385
     16 N4          4.2471   -2.9815   -4.2265 N.2       1 <0>        -0.2481
     17 C12         6.6704   -3.0831   -4.5566 C.3       1 <0>         0.0817
     18 C13         5.6307   -5.1398   -6.7646 C.ar      1 <0>         0.2912
     19 C14         4.8872   -5.7350   -7.7951 C.ar      1 <0>        -0.2207
     20 C15         5.5632   -6.5230   -8.7074 C.ar      1 <0>         0.1985
     21 N5          6.8763   -6.6568   -8.5960 N.ar      1 <0>        -0.5514
     22 C16         7.5533   -6.0479   -7.6329 C.ar      1 <0>         0.5658
     23 N6          6.9447   -5.2942   -6.7264 N.ar      1 <0>        -0.5617
     24 N7          8.9283   -6.2021   -7.5713 N.pl3     1 <0>        -0.6340
     25 C17         9.6015   -6.8955   -8.5855 C.ar      1 <0>         0.0997
     26 C18         9.1972   -6.7581   -9.9069 C.ar      1 <0>        -0.0556
     27 C19         9.8604   -7.4418  -10.9065 C.ar      1 <0>        -0.1810
     28 C20        10.9321   -8.2665  -10.5904 C.ar      1 <0>         0.2112
     29 C21        11.3367   -8.4035   -9.2690 C.ar      1 <0>        -0.1808
     30 C22        10.6767   -7.7156   -8.2701 C.ar      1 <0>        -0.0907
     31 N8         11.6041   -8.9599  -11.6035 N.pl3     1 <0>        -0.6316
     32 C23        12.6570   -9.9347  -11.2807 C.3       1 <0>         0.1266
     33 C24        12.3488  -11.2448  -12.0136 C.3       1 <0>         0.0382
     34 N9         12.1736  -10.9712  -13.4462 N.3       1 <0>        -0.5427
     35 C25        11.0222  -10.0903  -13.6836 C.3       1 <0>         0.0379
     36 C26        11.2719   -8.7375  -13.0189 C.3       1 <0>         0.1258
     37 C27        12.0471  -12.2202  -14.2091 C.3       1 <0>         0.0242
     38 C28         3.4133   -5.4902   -7.9371 C.3       1 <0>        -0.0628
     39 C29         2.7128   -5.3302   -6.5876 C.3       1 <0>        -0.0493
     40 H1          1.1061    3.0982   -1.4237 H         1 <0>         0.0798
     41 H2         -0.4823    2.8635   -2.1919 H         1 <0>         0.0763
     42 H3         -0.3799    3.2265   -0.4523 H         1 <0>         0.0791
     43 H4          0.0631    0.6567   -3.0398 H         1 <0>         0.1373
     44 H5          0.3526   -2.4673   -0.1358 H         1 <0>         0.1379
     45 H6          0.3997   -0.7437    1.6221 H         1 <0>         0.1593
     46 H7         -0.2871   -2.9780   -2.4583 H         1 <0>         0.0856
     47 H8         -0.4080   -1.6772   -3.6673 H         1 <0>         0.0853
     48 H9          2.2887   -1.8899   -2.8555 H         1 <0>         0.4089
     49 H10         6.9507   -2.2320   -5.1772 H         1 <0>         0.0881
     50 H11         6.7695   -2.8142   -3.5049 H         1 <0>         0.0991
     51 H12         7.3244   -3.9261   -4.7792 H         1 <0>         0.1125
     52 H13         5.0277   -7.0234   -9.5006 H         1 <0>         0.1752
     53 H14         9.4251   -5.8300   -6.8260 H         1 <0>         0.4202
     54 H15         8.3637   -6.1167  -10.1526 H         1 <0>         0.1268
     55 H16         9.5454   -7.3355  -11.9341 H         1 <0>         0.1247
     56 H17        12.1702   -9.0448   -9.0232 H         1 <0>         0.1258
     57 H18        10.9941   -7.8187   -7.2430 H         1 <0>         0.1231
     58 H19        13.6237   -9.5512  -11.6072 H         1 <0>         0.0699
     59 H20        12.6746  -10.1121  -10.2054 H         1 <0>         0.0861
     60 H21        13.1748  -11.9422  -11.8748 H         1 <0>         0.0857
     61 H22        11.4336  -11.6797  -11.6118 H         1 <0>         0.0385
     62 H23        10.8862   -9.9506  -14.7560 H         1 <0>         0.0861
     63 H24        10.1255  -10.5413  -13.2586 H         1 <0>         0.0384
     64 H25        10.3741   -8.1237  -13.0923 H         1 <0>         0.0870
     65 H26        12.1028   -8.2367  -13.5157 H         1 <0>         0.0697
     66 H27        11.1818  -12.7782  -13.8515 H         1 <0>         0.0259
     67 H28        11.9185  -11.9887  -15.2664 H         1 <0>         0.0704
     68 H29        12.9471  -12.8203  -14.0753 H         1 <0>         0.0706
     69 H30         3.2614   -4.5835   -8.5228 H         1 <0>         0.0802
     70 H31         2.9662   -6.3300   -8.4690 H         1 <0>         0.0881
     71 H32         2.6187   -6.3054   -6.1100 H         1 <0>         0.0827
     72 H33         1.7209   -4.9055   -6.7420 H         1 <0>         0.1018
@<TRIPOS>BOND
     1    1    2 1
     2    1   40 1
     3    1   41 1
     4    1   42 1
     5    2    7 ar
     6    2    3 ar
     7    3    4 ar
     8    3   43 1
     9    4    5 ar
    10    4    8 1
    11    5    6 ar
    12    5   44 1
    13    6    7 ar
    14    6   45 1
    15    8    9 1
    16    8   46 1
    17    8   47 1
    18    9   10 am
    19    9   48 1
    20   10   11 2
    21   10   12 1
    22   12   16 2
    23   12   13 1
    24   13   39 1
    25   13   14 2
    26   14   15 1
    27   14   18 1
    28   15   16 1
    29   15   17 1
    30   17   49 1
    31   17   50 1
    32   17   51 1
    33   18   23 ar
    34   18   19 ar
    35   19   20 ar
    36   19   38 1
    37   20   21 ar
    38   20   52 1
    39   21   22 ar
    40   22   23 ar
    41   22   24 1
    42   24   25 1
    43   24   53 1
    44   25   30 ar
    45   25   26 ar
    46   26   27 ar
    47   26   54 1
    48   27   28 ar
    49   27   55 1
    50   28   29 ar
    51   28   31 1
    52   29   30 ar
    53   29   56 1
    54   30   57 1
    55   31   36 1
    56   31   32 1
    57   32   33 1
    58   32   58 1
    59   32   59 1
    60   33   34 1
    61   33   60 1
    62   33   61 1
    63   34   35 1
    64   34   37 1
    65   35   36 1
    66   35   62 1
    67   35   63 1
    68   36   64 1
    69   36   65 1
    70   37   66 1
    71   37   67 1
    72   37   68 1
    73   38   39 1
    74   38   69 1
    75   38   70 1
    76   39   71 1
    77   39   72 1
@<TRIPOS>MOLECULE
CHEMBL1171950
   49    52     0     0     0
SMALL
USER_CHARGES

@<TRIPOS>ATOM
      1 C1          0.0102    1.3332   -0.6532 C.ar      1 <0>        -0.1304
      2 C2          1.0019    1.9259    0.1067 C.ar      1 <0>        -0.0986
      3 C3          2.2003    1.2710    0.3128 C.ar      1 <0>        -0.1485
      4 C4          2.4086    0.0156   -0.2438 C.ar      1 <0>         0.1535
      5 C5          1.4102   -0.5771   -1.0062 C.ar      1 <0>        -0.1123
      6 C6          0.2143    0.0834   -1.2087 C.ar      1 <0>        -0.0971
      7 N1          3.6207   -0.6499   -0.0375 N.pl3     1 <0>        -0.6360
      8 C7          3.6446   -2.0317    0.0595 C.ar      1 <0>         0.5617
      9 N2          2.4999   -2.6999    0.0608 N.ar      1 <0>        -0.5451
     10 C8          2.4711   -4.0197    0.1678 C.ar      1 <0>         0.2039
     11 C9          3.6630   -4.7124    0.2701 C.ar      1 <0>        -0.2104
     12 C10         4.8553   -3.9751    0.2373 C.ar      1 <0>         0.2831
     13 N3          4.8126   -2.6546    0.1432 N.ar      1 <0>        -0.5678
     14 C11         6.1185   -4.7325    0.2600 C.2       1 <0>         0.0345
     15 C12         6.1161   -6.0922    0.0330 C.2       1 <0>        -0.0919
     16 C13         7.4485   -6.4934    0.1364 C.2       1 <0>         0.0019
     17 N4          8.1644   -5.4066    0.3843 N.2       1 <0>        -0.2480
     18 N5          7.4018   -4.3668    0.4464 N.pl3     1 <0>        -0.2521
     19 C14         7.8621   -2.9964    0.6838 C.3       1 <0>         0.1236
     20 C15         7.8716   -2.7149    2.1876 C.3       1 <0>        -0.1709
     21 C16         8.3524   -1.2837    2.4355 C.3       1 <0>        -0.0024
     22 N6          8.3615   -1.0134    3.8794 N.4       1 <0>        -0.6365
     23 C17         7.9639   -7.8709   -0.0038 C.2       1 <0>         0.6065
     24 O1          7.1973   -8.7864   -0.2322 O.2       1 <0>        -0.5196
     25 N7          9.2839   -8.1126    0.1215 N.am      1 <0>        -0.8393
     26 C18         4.8624   -6.8598   -0.2697 C.3       1 <0>        -0.0561
     27 C19         3.6735   -6.2044    0.4342 C.3       1 <0>        -0.0671
     28 H1         -0.9276    1.8456   -0.8095 H         1 <0>         0.1263
     29 H2          0.8393    2.9020    0.5392 H         1 <0>         0.1276
     30 H3          2.9747    1.7348    0.9058 H         1 <0>         0.1202
     31 H4          1.5691   -1.5530   -1.4406 H         1 <0>         0.1337
     32 H5         -0.5624   -0.3769   -1.8014 H         1 <0>         0.1279
     33 H6          4.4450   -0.1441    0.0378 H         1 <0>         0.4181
     34 H7          1.5290   -4.5477    0.1754 H         1 <0>         0.1810
     35 H8          8.8698   -2.8775    0.2855 H         1 <0>         0.1147
     36 H9          7.1903   -2.2963    0.1873 H         1 <0>         0.1270
     37 H10         6.8640   -2.8338    2.5859 H         1 <0>         0.0954
     38 H11         8.5435   -3.4150    2.6841 H         1 <0>         0.1004
     39 H12         9.3600   -1.1648    2.0373 H         1 <0>         0.1418
     40 H13         7.6805   -0.5836    1.9390 H         1 <0>         0.1400
     41 H14         7.4287   -1.1235    4.2481 H         1 <0>         0.4367
     42 H15         8.9835   -1.6615    4.3390 H         1 <0>         0.4374
     43 H16         9.8955   -7.3821    0.3037 H         1 <0>         0.4063
     44 H17         9.6222   -9.0170    0.0294 H         1 <0>         0.4121
     45 H18         4.6899   -6.8627   -1.3459 H         1 <0>         0.0883
     46 H19         4.9715   -7.8857    0.0821 H         1 <0>         0.1071
     47 H20         3.7176   -6.4423    1.4970 H         1 <0>         0.0832
     48 H21         2.7506   -6.6114    0.0212 H         1 <0>         0.0941
     49 H22         8.6786   -0.0695    4.0429 H         1 <0>         0.4423
@<TRIPOS>BOND
     1    1    6 ar
     2    1    2 ar
     3    1   28 1
     4    2    3 ar
     5    2   29 1
     6    3    4 ar
     7    3   30 1
     8    4    5 ar
     9    4    7 1
    10    5    6 ar
    11    5   31 1
    12    6   32 1
    13    7    8 1
    14    7   33 1
    15    8   13 ar
    16    8    9 ar
    17    9   10 ar
    18   10   11 ar
    19   10   34 1
    20   11   27 1
    21   11   12 ar
    22   12   13 ar
    23   12   14 1
    24   14   18 1
    25   14   15 2
    26   15   16 1
    27   15   26 1
    28   16   17 2
    29   16   23 1
    30   17   18 1
    31   18   19 1
    32   19   20 1
    33   19   35 1
    34   19   36 1
    35   20   21 1
    36   20   37 1
    37   20   38 1
    38   21   22 1
    39   21   39 1
    40   21   40 1
    41   22   41 1
    42   22   42 1
    43   22   49 1
    44   23   24 2
    45   23   25 am
    46   25   43 1
    47   25   44 1
    48   26   27 1
    49   26   45 1
    50   26   46 1
    51   27   47 1
    52   27   48 1
@<TRIPOS>MOLECULE
CHEMBL1171949
   56    60     0     0     0
SMALL
USER_CHARGES

@<TRIPOS>ATOM
      1 C1          0.0102    1.3332   -0.6532 C.ar      1 <0>        -0.1314
      2 C2          1.0019    1.9259    0.1067 C.ar      1 <0>        -0.0986
      3 C3          2.2003    1.2710    0.3128 C.ar      1 <0>        -0.1481
      4 C4          2.4086    0.0156   -0.2438 C.ar      1 <0>         0.1548
      5 C5          1.4102   -0.5771   -1.0062 C.ar      1 <0>        -0.1128
      6 C6          0.2143    0.0834   -1.2087 C.ar      1 <0>        -0.0978
      7 N1          3.6207   -0.6499   -0.0375 N.pl3     1 <0>        -0.6355
      8 C7          3.6446   -2.0317    0.0595 C.ar      1 <0>         0.5632
      9 N2          2.4999   -2.6999    0.0608 N.ar      1 <0>        -0.5457
     10 C8          2.4711   -4.0197    0.1678 C.ar      1 <0>         0.2026
     11 C9          3.6630   -4.7124    0.2701 C.ar      1 <0>        -0.2130
     12 C10         4.8553   -3.9751    0.2373 C.ar      1 <0>         0.2829
     13 N3          4.8126   -2.6546    0.1432 N.ar      1 <0>        -0.5637
     14 C11         6.1185   -4.7325    0.2600 C.2       1 <0>         0.0376
     15 C12         6.1161   -6.0922    0.0330 C.2       1 <0>        -0.0949
     16 C13         7.4485   -6.4934    0.1364 C.2       1 <0>        -0.0024
     17 N4          8.1644   -5.4066    0.3843 N.2       1 <0>        -0.2524
     18 N5          7.4018   -4.3668    0.4464 N.pl3     1 <0>        -0.2475
     19 C14         7.8621   -2.9964    0.6838 C.3       1 <0>         0.1219
     20 C15         7.8716   -2.7149    2.1876 C.3       1 <0>        -0.1156
     21 C16         8.9140   -3.6062    2.8689 C.3       1 <0>        -0.1465
     22 C17         8.9743   -3.2636    4.3591 C.3       1 <0>        -0.0056
     23 N6          9.3492   -1.8544    4.5261 N.4       1 <0>        -0.5054
     24 C18         8.3177   -0.9915    3.9378 C.3       1 <0>        -0.0046
     25 C19         8.2322   -1.2466    2.4315 C.3       1 <0>        -0.1395
     26 C20         7.9639   -7.8709   -0.0038 C.2       1 <0>         0.6067
     27 O1          7.1973   -8.7864   -0.2322 O.2       1 <0>        -0.5200
     28 N7          9.2839   -8.1126    0.1215 N.am      1 <0>        -0.8406
     29 C21         4.8624   -6.8598   -0.2697 C.3       1 <0>        -0.0555
     30 C22         3.6735   -6.2044    0.4342 C.3       1 <0>        -0.0658
     31 H1         -0.9276    1.8456   -0.8095 H         1 <0>         0.1257
     32 H2          0.8393    2.9020    0.5392 H         1 <0>         0.1274
     33 H3          2.9747    1.7348    0.9058 H         1 <0>         0.1213
     34 H4          1.5691   -1.5530   -1.4406 H         1 <0>         0.1335
     35 H5         -0.5624   -0.3769   -1.8014 H         1 <0>         0.1273
     36 H6          4.4450   -0.1441    0.0378 H         1 <0>         0.4196
     37 H7          1.5290   -4.5477    0.1754 H         1 <0>         0.1799
     38 H8          8.8698   -2.8775    0.2855 H         1 <0>         0.1092
     39 H9          7.1903   -2.2963    0.1873 H         1 <0>         0.1268
     40 H10         6.8856   -2.9220    2.6034 H         1 <0>         0.0963
     41 H11         8.6338   -4.6525    2.7470 H         1 <0>         0.1139
     42 H12         9.8908   -3.4352    2.4163 H         1 <0>         0.0964
     43 H13         7.9972   -3.4352    4.8107 H         1 <0>         0.1292
     44 H14         9.7154   -3.8966    4.8472 H         1 <0>         0.1368
     45 H15         9.4403   -1.6458    5.5091 H         1 <0>         0.4336
     46 H16         7.3546   -1.2115    4.3984 H         1 <0>         0.1304
     47 H17         8.5741    0.0530    4.1150 H         1 <0>         0.1382
     48 H18         9.1947   -1.0267    1.9698 H         1 <0>         0.0963
     49 H19         7.4645   -0.6063    1.9969 H         1 <0>         0.1182
     50 H20         9.8955   -7.3821    0.3037 H         1 <0>         0.4053
     51 H21         9.6222   -9.0170    0.0294 H         1 <0>         0.4114
     52 H22         4.6899   -6.8627   -1.3459 H         1 <0>         0.0871
     53 H23         4.9715   -7.8857    0.0821 H         1 <0>         0.1056
     54 H24         3.7176   -6.4423    1.4970 H         1 <0>         0.0819
     55 H25         2.7506   -6.6114    0.0212 H         1 <0>         0.0929
     56 H26        10.2308   -1.6850    4.0653 H         1 <0>         0.4289
@<TRIPOS>BOND
     1    1    6 ar
     2    1    2 ar
     3    1   31 1
     4    2    3 ar
     5    2   32 1
     6    3    4 ar
     7    3   33 1
     8    4    5 ar
     9    4    7 1
    10    5    6 ar
    11    5   34 1
    12    6   35 1
    13    7    8 1
    14    7   36 1
    15    8   13 ar
    16    8    9 ar
    17    9   10 ar
    18   10   11 ar
    19   10   37 1
    20   11   30 1
    21   11   12 ar
    22   12   13 ar
    23   12   14 1
    24   14   18 1
    25   14   15 2
    26   15   16 1
    27   15   29 1
    28   16   17 2
    29   16   26 1
    30   17   18 1
    31   18   19 1
    32   19   20 1
    33   19   38 1
    34   19   39 1
    35   20   25 1
    36   20   21 1
    37   20   40 1
    38   21   22 1
    39   21   41 1
    40   21   42 1
    41   22   23 1
    42   22   43 1
    43   22   44 1
    44   23   24 1
    45   23   45 1
    46   23   56 1
    47   24   25 1
    48   24   46 1
    49   24   47 1
    50   25   48 1
    51   25   49 1
    52   26   27 2
    53   26   28 am
    54   28   50 1
    55   28   51 1
    56   29   30 1
    57   29   52 1
    58   29   53 1
    59   30   54 1
    60   30   55 1
@<TRIPOS>MOLECULE
CHEMBL1172241
   77    81     0     0     0
SMALL
USER_CHARGES

@<TRIPOS>ATOM
      1 C1          0.0583    2.6578   -1.2699 C.3       1 <0>        -0.1079
      2 C2          0.1438    1.1853   -0.9607 C.ar      1 <0>         0.1295
      3 C3          0.1144    0.2675   -1.9938 C.ar      1 <0>        -0.1551
      4 C4          0.1937   -1.0846   -1.6986 C.ar      1 <0>        -0.0637
      5 C5          0.3000   -1.4648   -0.3692 C.ar      1 <0>        -0.1611
      6 C6          0.3232   -0.4902    0.6101 C.ar      1 <0>         0.1073
      7 N1          0.2511    0.7877    0.2919 N.ar      1 <0>        -0.4782
      8 C7          0.1645   -2.1169   -2.7961 C.3       1 <0>         0.1601
      9 N2          1.5318   -2.3911   -3.2451 N.am      1 <0>        -0.7126
     10 C8          1.7517   -3.2879   -4.2268 C.2       1 <0>         0.6036
     11 O1          0.8154   -3.8694   -4.7397 O.2       1 <0>        -0.5144
     12 C9          3.1306   -3.5644   -4.6796 C.2       1 <0>         0.0047
     13 C10         3.5105   -4.4565   -5.6828 C.2       1 <0>        -0.0918
     14 C11         4.8834   -4.3686   -5.7586 C.2       1 <0>         0.0358
     15 N3          5.2736   -3.4758   -4.8271 N.pl3     1 <0>        -0.2522
     16 N4          4.2387   -3.0077   -4.2134 N.2       1 <0>        -0.2487
     17 C12         6.6610   -3.0907   -4.5564 C.3       1 <0>         0.1243
     18 C13         7.0394   -1.8963   -5.4346 C.3       1 <0>        -0.1704
     19 C14         8.4883   -1.4942   -5.1518 C.3       1 <0>        -0.0027
     20 N5          8.8516   -0.3475   -5.9950 N.4       1 <0>        -0.6364
     21 C15         5.6263   -5.1655   -6.7499 C.ar      1 <0>         0.2839
     22 C16         4.8822   -5.7711   -7.7738 C.ar      1 <0>        -0.2121
     23 C17         5.5597   -6.5572   -8.6865 C.ar      1 <0>         0.2040
     24 N6          6.8745   -6.6796   -8.5818 N.ar      1 <0>        -0.5445
     25 C18         7.5515   -6.0611   -7.6250 C.ar      1 <0>         0.5640
     26 N7          6.9418   -5.3087   -6.7184 N.ar      1 <0>        -0.5691
     27 N8          8.9285   -6.2037   -7.5704 N.pl3     1 <0>        -0.6378
     28 C19         9.6004   -6.8958   -8.5824 C.ar      1 <0>         0.1554
     29 C20         9.2049   -6.7502   -9.9062 C.ar      1 <0>        -0.1064
     30 C21         9.8709   -7.4348  -10.9034 C.ar      1 <0>        -0.0973
     31 C22        10.9304   -8.2651  -10.5855 C.ar      1 <0>        -0.1115
     32 C23        11.3262   -8.4126   -9.2689 C.ar      1 <0>        -0.0458
     33 C24        10.6683   -7.7258   -8.2673 C.ar      1 <0>        -0.1266
     34 C25        12.4809   -9.3187   -8.9272 C.3       1 <0>        -0.1028
     35 C26        13.7650   -8.5308   -8.9616 C.2       1 <0>         0.5147
     36 O2         13.7447   -7.3498   -9.2365 O.2       1 <0>        -0.5333
     37 N9         14.9361   -9.1386   -8.6868 N.am      1 <0>        -0.6236
     38 C27        16.1845   -8.3727   -8.7202 C.3       1 <0>         0.0831
     39 C28        14.9607  -10.5653   -8.3546 C.3       1 <0>         0.0726
     40 C29         3.4055   -5.5391   -7.9087 C.3       1 <0>        -0.0665
     41 C30         2.7111   -5.3793   -6.5560 C.3       1 <0>        -0.0552
     42 H1          1.0617    3.0568   -1.4183 H         1 <0>         0.0783
     43 H2         -0.5290    2.8052   -2.1763 H         1 <0>         0.0769
     44 H3         -0.4197    3.1764   -0.4389 H         1 <0>         0.0810
     45 H4          0.0305    0.5996   -3.0181 H         1 <0>         0.1365
     46 H5          0.3635   -2.5095   -0.1026 H         1 <0>         0.1384
     47 H6          0.4058   -0.7780    1.6477 H         1 <0>         0.1606
     48 H7         -0.2852   -3.0355   -2.4191 H         1 <0>         0.0880
     49 H8         -0.4242   -1.7410   -3.6329 H         1 <0>         0.0873
     50 H9          2.2789   -1.9271   -2.8358 H         1 <0>         0.4070
     51 H10         6.7637   -2.8166   -3.5064 H         1 <0>         0.1140
     52 H11         7.3209   -3.9291   -4.7793 H         1 <0>         0.1271
     53 H12         6.9367   -2.1704   -6.4845 H         1 <0>         0.0957
     54 H13         6.3795   -1.0579   -5.2117 H         1 <0>         0.0998
     55 H14         8.5910   -1.2201   -4.1018 H         1 <0>         0.1416
     56 H15         9.1482   -2.3326   -5.3747 H         1 <0>         0.1406
     57 H16         9.8071   -0.0822   -5.8085 H         1 <0>         0.4425
     58 H17         8.7565   -0.6011   -6.9669 H         1 <0>         0.4368
     59 H18         5.0240   -7.0654   -9.4747 H         1 <0>         0.1799
     60 H19         9.4264   -5.8233   -6.8299 H         1 <0>         0.4185
     61 H20         8.3772   -6.1026  -10.1550 H         1 <0>         0.1250
     62 H21         9.5639   -7.3221  -11.9327 H         1 <0>         0.1281
     63 H22        11.4494   -8.7997  -11.3673 H         1 <0>         0.1238
     64 H23        10.9811   -7.8377   -7.2396 H         1 <0>         0.1207
     65 H24        12.3350   -9.7324   -7.9293 H         1 <0>         0.1042
     66 H25        12.5330  -10.1303   -9.6529 H         1 <0>         0.1078
     67 H26        16.3798   -7.9530   -7.7334 H         1 <0>         0.0550
     68 H27        17.0064   -9.0297   -9.0048 H         1 <0>         0.0726
     69 H28        16.0961   -7.5655   -9.4473 H         1 <0>         0.0770
     70 H29        15.0811  -11.1488   -9.2674 H         1 <0>         0.0621
     71 H30        15.7940  -10.7673   -7.6816 H         1 <0>         0.0763
     72 H31        14.0254  -10.8412   -7.8677 H         1 <0>         0.0744
     73 H32         3.2429   -4.6362   -8.4973 H         1 <0>         0.0825
     74 H33         2.9625   -6.3848   -8.4346 H         1 <0>         0.0934
     75 H34         2.6277   -6.3532   -6.0739 H         1 <0>         0.0879
     76 H35         1.7149   -4.9635   -6.7067 H         1 <0>         0.1063
     77 H36         8.2407    0.4287   -5.7887 H         1 <0>         0.4370
@<TRIPOS>BOND
     1    1    2 1
     2    1   42 1
     3    1   43 1
     4    1   44 1
     5    2    7 ar
     6    2    3 ar
     7    3    4 ar
     8    3   45 1
     9    4    5 ar
    10    4    8 1
    11    5    6 ar
    12    5   46 1
    13    6    7 ar
    14    6   47 1
    15    8    9 1
    16    8   48 1
    17    8   49 1
    18    9   10 am
    19    9   50 1
    20   10   11 2
    21   10   12 1
    22   12   16 2
    23   12   13 1
    24   13   41 1
    25   13   14 2
    26   14   15 1
    27   14   21 1
    28   15   16 1
    29   15   17 1
    30   17   18 1
    31   17   51 1
    32   17   52 1
    33   18   19 1
    34   18   53 1
    35   18   54 1
    36   19   20 1
    37   19   55 1
    38   19   56 1
    39   20   57 1
    40   20   58 1
    41   20   77 1
    42   21   26 ar
    43   21   22 ar
    44   22   23 ar
    45   22   40 1
    46   23   24 ar
    47   23   59 1
    48   24   25 ar
    49   25   26 ar
    50   25   27 1
    51   27   28 1
    52   27   60 1
    53   28   33 ar
    54   28   29 ar
    55   29   30 ar
    56   29   61 1
    57   30   31 ar
    58   30   62 1
    59   31   32 ar
    60   31   63 1
    61   32   33 ar
    62   32   34 1
    63   33   64 1
    64   34   35 1
    65   34   65 1
    66   34   66 1
    67   35   36 2
    68   35   37 am
    69   37   38 1
    70   37   39 1
    71   38   67 1
    72   38   68 1
    73   38   69 1
    74   39   70 1
    75   39   71 1
    76   39   72 1
    77   40   41 1
    78   40   73 1
    79   40   74 1
    80   41   75 1
    81   41   76 1
@<TRIPOS>MOLECULE
CHEMBL187913
   56    60     0     0     0
SMALL
USER_CHARGES

@<TRIPOS>ATOM
      1 C1         -0.0427    1.4166    0.0450 C.3       1 <0>         0.0237
      2 O1         -0.0232   -0.0123    0.0411 O.3       1 <0>        -0.3116
      3 C2          0.6102   -0.6230    1.0754 C.ar      1 <0>         0.1525
      4 C3          1.1962    0.1412    2.0772 C.ar      1 <0>        -0.2104
      5 C4          1.8398   -0.4742    3.1283 C.ar      1 <0>        -0.0510
      6 C5          1.9028   -1.8692    3.1861 C.ar      1 <0>        -0.1023
      7 C6          1.3120   -2.6338    2.1763 C.ar      1 <0>        -0.0252
      8 C7          0.6656   -2.0103    1.1319 C.ar      1 <0>        -0.1502
      9 C8          2.5913   -2.5326    4.3096 C.2       1 <0>         0.2440
     10 C9          3.4845   -3.5913    4.2181 C.2       1 <0>        -0.3330
     11 C10         3.9020   -3.9057    5.5869 C.2       1 <0>         0.1277
     12 N1          3.2795   -3.0740    6.3851 N.2       1 <0>        -0.2334
     13 N2          2.4735   -2.2165    5.6299 N.pl3     1 <0>        -0.4651
     14 H1          1.9162   -1.5087    5.9896 H         1 <0>         0.4487
     15 C11         4.8593   -5.0373    5.5134 C.ar      1 <0>         0.0435
     16 C12         5.5528   -5.7246    6.5015 C.ar      1 <0>        -0.1072
     17 C13         6.4026   -6.7646    6.1631 C.ar      1 <0>        -0.0594
     18 C14         6.5714   -7.1304    4.8434 C.ar      1 <0>        -0.1302
     19 C15         5.8874   -6.4567    3.8369 C.ar      1 <0>         0.2422
     20 C16         5.0247   -5.4033    4.1662 C.ar      1 <0>        -0.1952
     21 C17         4.1842   -4.5261    3.3264 C.2       1 <0>         0.4946
     22 O2          4.0885   -4.5697    2.1143 O.2       1 <0>        -0.4501
     23 N3          6.0601   -6.8278    2.5062 N.am      1 <0>        -0.6752
     24 C18         6.4498   -8.0814    2.2014 C.2       1 <0>         0.7151
     25 O3          6.5514   -8.9167    3.0789 O.2       1 <0>        -0.5469
     26 N4          6.7269   -8.4091    0.9237 N.am      1 <0>        -0.5210
     27 N5          6.6098   -7.4465   -0.0874 N.am      1 <0>        -0.5365
     28 C19         6.8868   -7.7741   -1.3651 C.2       1 <0>         0.5188
     29 O4          7.2375   -8.9023   -1.6394 O.2       1 <0>        -0.5151
     30 C20         6.7609   -6.7387   -2.4528 C.3       1 <0>        -0.0910
     31 C21         7.1247   -7.3560   -3.7785 C.ar      1 <0>        -0.0752
     32 C22         8.4355   -7.3295   -4.2168 C.ar      1 <0>        -0.1025
     33 C23         8.7692   -7.8958   -5.4329 C.ar      1 <0>        -0.1192
     34 C24         7.7923   -8.4889   -6.2105 C.ar      1 <0>        -0.1151
     35 C25         6.4817   -8.5162   -5.7718 C.ar      1 <0>        -0.1191
     36 C26         6.1487   -7.9538   -4.5537 C.ar      1 <0>        -0.1023
     37 H2          0.9797    1.7940    0.0263 H         1 <0>         0.0592
     38 H3         -0.5785    1.7750   -0.8339 H         1 <0>         0.1046
     39 H4         -0.5443    1.7706    0.9457 H         1 <0>         0.0587
     40 H5          1.1473    1.2191    2.0315 H         1 <0>         0.1369
     41 H6          2.2952    0.1205    3.9063 H         1 <0>         0.1291
     42 H7          1.3586   -3.7121    2.2170 H         1 <0>         0.1379
     43 H8          0.2046   -2.6004    0.3536 H         1 <0>         0.1411
     44 H9          5.4291   -5.4466    7.5378 H         1 <0>         0.1393
     45 H10         6.9376   -7.2932    6.9382 H         1 <0>         0.1443
     46 H11         7.2371   -7.9425    4.5910 H         1 <0>         0.1624
     47 H12         5.9000   -6.1840    1.7985 H         1 <0>         0.4123
     48 H13         7.0073   -9.3113    0.7043 H         1 <0>         0.4491
     49 H14         6.3293   -6.5442    0.1320 H         1 <0>         0.4219
     50 H15         5.7341   -6.3749   -2.4910 H         1 <0>         0.1130
     51 H16         7.4334   -5.9071   -2.2424 H         1 <0>         0.1120
     52 H17         9.1987   -6.8661   -3.6093 H         1 <0>         0.1207
     53 H18         9.7932   -7.8744   -5.7757 H         1 <0>         0.1232
     54 H19         8.0529   -8.9307   -7.1609 H         1 <0>         0.1225
     55 H20         5.7183   -8.9794   -6.3794 H         1 <0>         0.1234
     56 H21         5.1254   -7.9784   -4.2093 H         1 <0>         0.1211
@<TRIPOS>BOND
     1    1    2 1
     2    1   37 1
     3    1   38 1
     4    1   39 1
     5    2    3 1
     6    3    8 ar
     7    3    4 ar
     8    4    5 ar
     9    4   40 1
    10    5    6 ar
    11    5   41 1
    12    6    7 ar
    13    6    9 1
    14    7    8 ar
    15    7   42 1
    16    8   43 1
    17    9   13 1
    18    9   10 2
    19   10   21 1
    20   10   11 1
    21   11   12 2
    22   11   15 1
    23   12   13 1
    24   13   14 1
    25   15   20 ar
    26   15   16 ar
    27   16   17 ar
    28   16   44 1
    29   17   18 ar
    30   17   45 1
    31   18   19 ar
    32   18   46 1
    33   19   20 ar
    34   19   23 1
    35   20   21 1
    36   21   22 2
    37   23   24 am
    38   23   47 1
    39   24   25 2
    40   24   26 am
    41   26   27 1
    42   26   48 1
    43   27   28 am
    44   27   49 1
    45   28   29 2
    46   28   30 1
    47   30   31 1
    48   30   50 1
    49   30   51 1
    50   31   36 ar
    51   31   32 ar
    52   32   33 ar
    53   32   52 1
    54   33   34 ar
    55   33   53 1
    56   34   35 ar
    57   34   54 1
    58   35   36 ar
    59   35   55 1
    60   36   56 1
@<TRIPOS>MOLECULE
CHEMBL187913
   56    60     0     0     0
SMALL
USER_CHARGES

@<TRIPOS>ATOM
      1 C1          0.0010    1.4492   -0.0344 C.3       1 <0>         0.0248
      2 O1          0.0199    0.0203   -0.0305 O.3       1 <0>        -0.3145
      3 C2          0.6172   -0.5915   -1.0862 C.ar      1 <0>         0.1446
      4 C3          1.1786    0.1710   -2.1019 C.ar      1 <0>        -0.2133
      5 C4          1.7852   -0.4468   -3.1749 C.ar      1 <0>        -0.0419
      6 C5          1.8350   -1.8391   -3.2391 C.ar      1 <0>        -0.0738
      7 C6          1.2706   -2.6019   -2.2171 C.ar      1 <0>        -0.0350
      8 C7          0.6701   -1.9779   -1.1444 C.ar      1 <0>        -0.1528
      9 C8          2.4858   -2.5065   -4.3913 C.2       1 <0>         0.2022
     10 C9          3.2248   -3.7128   -4.3467 C.2       1 <0>        -0.3140
     11 C10         3.6563   -3.9800   -5.6392 C.2       1 <0>         0.1588
     12 N1          3.2005   -2.9834   -6.4286 N.pl3     1 <0>        -0.4235
     13 N2          2.4742   -2.0853   -5.6389 N.2       1 <0>        -0.2701
     14 H1          3.3486   -2.9054   -7.3840 H         1 <0>         0.4476
     15 C11         4.4373   -5.2404   -5.6336 C.ar      1 <0>         0.0130
     16 C12         5.0795   -5.9395   -6.6447 C.ar      1 <0>        -0.1089
     17 C13         5.7536   -7.1199   -6.3584 C.ar      1 <0>        -0.0617
     18 C14         5.7931   -7.6095   -5.0721 C.ar      1 <0>        -0.1245
     19 C15         5.1531   -6.9211   -4.0389 C.ar      1 <0>         0.2476
     20 C16         4.4738   -5.7354   -4.3166 C.ar      1 <0>        -0.1962
     21 C17         3.7134   -4.7927   -3.4655 C.2       1 <0>         0.4880
     22 O2          3.5275   -4.8885   -2.2684 O.2       1 <0>        -0.4373
     23 N3          5.1926   -7.4160   -2.7397 N.am      1 <0>        -0.6750
     24 C18         6.2010   -8.2242   -2.3569 C.2       1 <0>         0.7154
     25 O3          7.1287   -8.4385   -3.1128 O.2       1 <0>        -0.5469
     26 N4          6.1808   -8.7950   -1.1361 N.am      1 <0>        -0.5199
     27 N5          5.1116   -8.5482   -0.2650 N.am      1 <0>        -0.5370
     28 C19         5.0914   -9.1189    0.9557 C.2       1 <0>         0.5191
     29 O4          5.9988   -9.8462    1.3002 O.2       1 <0>        -0.5145
     30 C20         3.9414   -8.8534    1.8927 C.3       1 <0>        -0.0909
     31 C21         4.1594   -9.6042    3.1810 C.ar      1 <0>        -0.0756
     32 C22         3.6797  -10.8932    3.3195 C.ar      1 <0>        -0.1024
     33 C23         3.8798  -11.5820    4.5013 C.ar      1 <0>        -0.1192
     34 C24         4.5598  -10.9818    5.5444 C.ar      1 <0>        -0.1149
     35 C25         5.0403   -9.6931    5.4056 C.ar      1 <0>        -0.1190
     36 C26         4.8440   -9.0059    4.2223 C.ar      1 <0>        -0.1022
     37 H2          1.0236    1.8260   -0.0510 H         1 <0>         0.0577
     38 H3         -0.5310    1.8031   -0.9174 H         1 <0>         0.0578
     39 H4         -0.5040    1.8083    0.8623 H         1 <0>         0.1024
     40 H5          1.1398    1.2491   -2.0515 H         1 <0>         0.1338
     41 H6          2.2210    0.1467   -3.9649 H         1 <0>         0.1311
     42 H7          1.3075   -3.6803   -2.2640 H         1 <0>         0.1359
     43 H8          0.2364   -2.5680   -0.3506 H         1 <0>         0.1376
     44 H9          5.0551   -5.5654   -7.6576 H         1 <0>         0.1365
     45 H10         6.2508   -7.6583   -7.1516 H         1 <0>         0.1453
     46 H11         6.3201   -8.5284   -4.8615 H         1 <0>         0.1639
     47 H12         4.4946   -7.1795   -2.1091 H         1 <0>         0.4130
     48 H13         6.9065   -9.3767   -0.8606 H         1 <0>         0.4497
     49 H14         4.3859   -7.9665   -0.5405 H         1 <0>         0.4218
     50 H15         3.8812   -7.7851    2.1005 H         1 <0>         0.1135
     51 H16         3.0120   -9.1866    1.4308 H         1 <0>         0.1124
     52 H17         3.1484  -11.3621    2.5045 H         1 <0>         0.1207
     53 H18         3.5044  -12.5888    4.6097 H         1 <0>         0.1233
     54 H19         4.7155  -11.5196    6.4679 H         1 <0>         0.1226
     55 H20         5.5714   -9.2240    6.2207 H         1 <0>         0.1234
     56 H21         5.2226   -8.0004    4.1126 H         1 <0>         0.1212
@<TRIPOS>BOND
     1    1    2 1
     2    1   37 1
     3    1   38 1
     4    1   39 1
     5    2    3 1
     6    3    8 ar
     7    3    4 ar
     8    4    5 ar
     9    4   40 1
    10    5    6 ar
    11    5   41 1
    12    6    7 ar
    13    6    9 1
    14    7    8 ar
    15    7   42 1
    16    8   43 1
    17    9   10 1
    18    9   13 2
    19   10   21 1
    20   10   11 2
    21   11   15 1
    22   11   12 1
    23   12   14 1
    24   12   13 1
    25   15   20 ar
    26   15   16 ar
    27   16   17 ar
    28   16   44 1
    29   17   18 ar
    30   17   45 1
    31   18   19 ar
    32   18   46 1
    33   19   20 ar
    34   19   23 1
    35   20   21 1
    36   21   22 2
    37   23   24 am
    38   23   47 1
    39   24   25 2
    40   24   26 am
    41   26   27 1
    42   26   48 1
    43   27   28 am
    44   27   49 1
    45   28   29 2
    46   28   30 1
    47   30   31 1
    48   30   50 1
    49   30   51 1
    50   31   36 ar
    51   31   32 ar
    52   32   33 ar
    53   32   52 1
    54   33   34 ar
    55   33   53 1
    56   34   35 ar
    57   34   54 1
    58   35   36 ar
    59   35   55 1
    60   36   56 1
@<TRIPOS>MOLECULE
CHEMBL556881
   53    57     0     0     0
SMALL
USER_CHARGES

@<TRIPOS>ATOM
      1 C1         -0.7868    1.5252   -0.1326 C.3       1 <0>         0.0871
      2 N1         -0.6001    0.0736   -0.0680 N.pl3     1 <0>        -0.2384
      3 C2         -0.3081   -0.7177   -1.1180 C.2       1 <0>         0.0328
      4 C3         -0.1940   -2.0037   -0.6337 C.2       1 <0>        -0.1040
      5 C4         -0.4555   -1.9156    0.7338 C.2       1 <0>        -0.0149
      6 N2         -0.6852   -0.6394    1.0049 N.2       1 <0>        -0.2482
      7 C5         -0.4680   -3.0341    1.6989 C.2       1 <0>         0.6124
      8 O1         -0.2343   -4.1657    1.3211 O.2       1 <0>        -0.5293
      9 N3         -0.7385   -2.8000    2.9984 N.am      1 <0>        -0.8412
     10 C6          0.1645   -3.1674   -1.5110 C.3       1 <0>        -0.0499
     11 C7         -0.3743   -2.9355   -2.9229 C.3       1 <0>        -0.0633
     12 C8         -0.1030   -1.5460   -3.4212 C.ar      1 <0>        -0.2192
     13 C9         -0.0926   -0.4471   -2.5497 C.ar      1 <0>         0.2902
     14 N4          0.1120    0.7715   -3.0263 N.ar      1 <0>        -0.5599
     15 C10         0.3292    0.9508   -4.3227 C.ar      1 <0>         0.5647
     16 N5          0.3497   -0.0680   -5.1701 N.ar      1 <0>        -0.5518
     17 C11         0.1394   -1.3104   -4.7614 C.ar      1 <0>         0.1985
     18 N6          0.5391    2.2331   -4.8020 N.pl3     1 <0>        -0.6346
     19 C12         0.6523    2.4558   -6.1805 C.ar      1 <0>         0.1027
     20 C13        -0.1432    1.7418   -7.0668 C.ar      1 <0>        -0.0558
     21 C14        -0.0313    1.9609   -8.4255 C.ar      1 <0>        -0.1794
     22 C15         0.8765    2.8958   -8.9056 C.ar      1 <0>         0.2091
     23 C16         1.6717    3.6103   -8.0191 C.ar      1 <0>        -0.1792
     24 C17         1.5560    3.3947   -6.6602 C.ar      1 <0>        -0.0911
     25 N7          0.9902    3.1177  -10.2827 N.pl3     1 <0>        -0.6341
     26 C18         2.0297    4.0080  -10.8232 C.3       1 <0>         0.0873
     27 C19         2.7707    3.2639  -11.9400 C.3       1 <0>         0.0453
     28 O2          1.8195    2.7554  -12.8784 O.3       1 <0>        -0.3794
     29 C20         0.9104    1.7981  -12.3298 C.3       1 <0>         0.0451
     30 C21         0.0777    2.4627  -11.2334 C.3       1 <0>         0.0865
     31 H1          0.1709    2.0220    0.0224 H         1 <0>         0.0916
     32 H2         -1.1832    1.7974   -1.1108 H         1 <0>         0.1042
     33 H3         -1.4871    1.8363    0.6426 H         1 <0>         0.0986
     34 H4         -0.9250   -1.8971    3.2999 H         1 <0>         0.4079
     35 H5         -0.7467   -3.5343    3.6320 H         1 <0>         0.4081
     36 H6          1.2488   -3.2719   -1.5495 H         1 <0>         0.0826
     37 H7         -0.2722   -4.0782   -1.1014 H         1 <0>         0.1023
     38 H8          0.0928   -3.6504   -3.6003 H         1 <0>         0.0885
     39 H9         -1.4510   -3.1056   -2.9216 H         1 <0>         0.0808
     40 H10         0.1575   -2.1286   -5.4661 H         1 <0>         0.1757
     41 H11         0.6078    2.9770   -4.1833 H         1 <0>         0.4206
     42 H12        -0.8491    1.0147   -6.6934 H         1 <0>         0.1279
     43 H13        -0.6495    1.4050   -9.1148 H         1 <0>         0.1250
     44 H14         2.3776    4.3373   -8.3924 H         1 <0>         0.1259
     45 H15         2.1713    3.9535   -5.9705 H         1 <0>         0.1241
     46 H16         1.5679    4.9093  -11.2263 H         1 <0>         0.0705
     47 H17         2.7308    4.2761  -10.0328 H         1 <0>         0.0921
     48 H18         3.4503    3.9498  -12.4459 H         1 <0>         0.1050
     49 H19         3.3381    2.4372  -11.5125 H         1 <0>         0.0560
     50 H20         0.2516    1.4295  -13.1161 H         1 <0>         0.1053
     51 H21         1.4710    0.9661  -11.9037 H         1 <0>         0.0559
     52 H22        -0.5133    1.7080  -10.7145 H         1 <0>         0.0931
     53 H23        -0.5840    3.2058  -11.6784 H         1 <0>         0.0704
@<TRIPOS>BOND
     1    1    2 1
     2    1   31 1
     3    1   32 1
     4    1   33 1
     5    2    6 1
     6    2    3 1
     7    3   13 1
     8    3    4 2
     9    4    5 1
    10    4   10 1
    11    5    6 2
    12    5    7 1
    13    7    8 2
    14    7    9 am
    15    9   34 1
    16    9   35 1
    17   10   11 1
    18   10   36 1
    19   10   37 1
    20   11   12 1
    21   11   38 1
    22   11   39 1
    23   12   17 ar
    24   12   13 ar
    25   13   14 ar
    26   14   15 ar
    27   15   16 ar
    28   15   18 1
    29   16   17 ar
    30   17   40 1
    31   18   19 1
    32   18   41 1
    33   19   24 ar
    34   19   20 ar
    35   20   21 ar
    36   20   42 1
    37   21   22 ar
    38   21   43 1
    39   22   23 ar
    40   22   25 1
    41   23   24 ar
    42   23   44 1
    43   24   45 1
    44   25   30 1
    45   25   26 1
    46   26   27 1
    47   26   46 1
    48   26   47 1
    49   27   28 1
    50   27   48 1
    51   27   49 1
    52   28   29 1
    53   29   30 1
    54   29   50 1
    55   29   51 1
    56   30   52 1
    57   30   53 1
@<TRIPOS>MOLECULE
CHEMBL148865
   32    35     0     0     0
SMALL
USER_CHARGES

@<TRIPOS>ATOM
      1 C1         -0.0300    1.3667    0.0423 C.ar      1 <0>        -0.0639
      2 C2          1.1539    2.0946    0.0382 C.ar      1 <0>        -0.1122
      3 C3          2.3754    1.4391    0.0144 C.ar      1 <0>         0.0125
      4 C4          2.4070    0.0317   -0.0056 C.ar      1 <0>        -0.1991
      5 C5          1.2143   -0.6899   -0.0006 C.ar      1 <0>         0.2504
      6 C6         -0.0060   -0.0092    0.0228 C.ar      1 <0>        -0.1256
      7 N1          1.2386   -2.0802   -0.0208 N.am      1 <0>        -0.6762
      8 C7          0.1858   -2.7656   -0.5087 C.2       1 <0>         0.7084
      9 O1         -0.7406   -2.1708   -1.0245 O.2       1 <0>        -0.5702
     10 N2          0.1599   -4.1106   -0.4250 N.am      1 <0>        -0.8547
     11 C8          3.8281   -0.3817   -0.0292 C.2       1 <0>         0.4879
     12 O2          4.2490   -1.5211   -0.0506 O.2       1 <0>        -0.4385
     13 C9          4.6386    0.8560   -0.0222 C.2       1 <0>        -0.3167
     14 C10         3.7706    1.9402    0.0038 C.2       1 <0>         0.1571
     15 N3          4.5302    3.0566    0.0098 N.pl3     1 <0>        -0.4268
     16 H1          4.1995    3.9683    0.0266 H         1 <0>         0.4465
     17 N4          5.8761    2.6736   -0.0125 N.2       1 <0>        -0.2776
     18 C11         5.9480    1.3678   -0.0315 C.2       1 <0>         0.1852
     19 C12         7.2153    0.5527   -0.0580 C.3       1 <0>        -0.0953
     20 C13         8.5378    1.2964    0.1390 C.3       1 <0>        -0.1619
     21 C14         8.1620    0.7570   -1.2425 C.3       1 <0>        -0.1573
     22 H2         -0.9771    1.8852    0.0654 H         1 <0>         0.1437
     23 H3          1.1224    3.1740    0.0533 H         1 <0>         0.1349
     24 H4         -0.9324   -0.5643    0.0266 H         1 <0>         0.1635
     25 H5          2.0134   -2.5567    0.3164 H         1 <0>         0.4191
     26 H6          0.8990   -4.5852   -0.0135 H         1 <0>         0.4029
     27 H7         -0.5979   -4.6039   -0.7762 H         1 <0>         0.4225
     28 H8          7.1364   -0.4526    0.3556 H         1 <0>         0.1318
     29 H9          8.4912    2.3752    0.2878 H         1 <0>         0.1038
     30 H10         9.3292    0.7804    0.6826 H         1 <0>         0.1034
     31 H11         8.7062   -0.1139   -1.6079 H         1 <0>         0.1053
     32 H12         7.8681    1.4809   -2.0026 H         1 <0>         0.0972
@<TRIPOS>BOND
     1    1    6 ar
     2    1    2 ar
     3    1   22 1
     4    2    3 ar
     5    2   23 1
     6    3   14 1
     7    3    4 ar
     8    4    5 ar
     9    4   11 1
    10    5    6 ar
    11    5    7 1
    12    6   24 1
    13    7    8 am
    14    7   25 1
    15    8    9 2
    16    8   10 am
    17   10   26 1
    18   10   27 1
    19   11   12 2
    20   11   13 1
    21   13   18 1
    22   13   14 2
    23   14   15 1
    24   15   16 1
    25   15   17 1
    26   17   18 2
    27   18   19 1
    28   19   21 1
    29   19   20 1
    30   19   28 1
    31   20   21 1
    32   20   29 1
    33   20   30 1
    34   21   31 1
    35   21   32 1
@<TRIPOS>MOLECULE
CHEMBL148865
   32    35     0     0     0
SMALL
USER_CHARGES

@<TRIPOS>ATOM
      1 C1         -0.0300    1.3696    0.0429 C.ar      1 <0>        -0.0610
      2 C2          1.1514    2.0940    0.0380 C.ar      1 <0>        -0.1103
      3 C3          2.3748    1.4379    0.0135 C.ar      1 <0>         0.0423
      4 C4          2.4093    0.0322   -0.0065 C.ar      1 <0>        -0.1981
      5 C5          1.2084   -0.6886   -0.0017 C.ar      1 <0>         0.2459
      6 C6         -0.0059   -0.0092    0.0235 C.ar      1 <0>        -0.1316
      7 N1          1.2294   -2.0800   -0.0217 N.am      1 <0>        -0.6764
      8 C7          0.1744   -2.7630   -0.5085 C.2       1 <0>         0.7079
      9 O1         -0.7510   -2.1659   -1.0235 O.2       1 <0>        -0.5703
     10 N2          0.1454   -4.1078   -0.4246 N.am      1 <0>        -0.8558
     11 C8          3.8176   -0.4113   -0.0304 C.2       1 <0>         0.4955
     12 O2          4.2071   -1.5630   -0.0512 O.2       1 <0>        -0.4503
     13 C9          4.6662    0.7944   -0.0244 C.2       1 <0>        -0.3375
     14 C10         3.7667    1.9514    0.0030 C.2       1 <0>         0.1276
     15 N3          4.5212    3.0225    0.0086 N.2       1 <0>        -0.2364
     16 H1          6.6239    3.2326   -0.0145 H         1 <0>         0.4455
     17 N4          5.8639    2.6298   -0.0136 N.pl3     1 <0>        -0.4691
     18 C11         5.9378    1.2847   -0.0337 C.2       1 <0>         0.2237
     19 C12         7.2032    0.4667   -0.0610 C.3       1 <0>        -0.1125
     20 C13         8.5275    1.2072    0.1360 C.3       1 <0>        -0.1705
     21 C14         8.1500    0.6694   -1.2457 C.3       1 <0>        -0.1559
     22 H2         -0.9767    1.8888    0.0666 H         1 <0>         0.1429
     23 H3          1.1203    3.1735    0.0531 H         1 <0>         0.1379
     24 H4         -0.9327   -0.5636    0.0278 H         1 <0>         0.1623
     25 H5          2.0033   -2.5582    0.3148 H         1 <0>         0.4182
     26 H6          0.8838   -4.5841   -0.0137 H         1 <0>         0.4022
     27 H7         -0.6139   -4.5993   -0.7750 H         1 <0>         0.4218
     28 H8          7.1221   -0.5386    0.3522 H         1 <0>         0.1418
     29 H9          8.4835    2.2861    0.2854 H         1 <0>         0.0946
     30 H10         9.3179    0.6891    0.6791 H         1 <0>         0.1132
     31 H11         8.6920   -0.2026   -1.6116 H         1 <0>         0.1128
     32 H12         7.8576    1.3943   -2.0053 H         1 <0>         0.0998
@<TRIPOS>BOND
     1    1    6 ar
     2    1    2 ar
     3    1   22 1
     4    2    3 ar
     5    2   23 1
     6    3   14 1
     7    3    4 ar
     8    4    5 ar
     9    4   11 1
    10    5    6 ar
    11    5    7 1
    12    6   24 1
    13    7    8 am
    14    7   25 1
    15    8    9 2
    16    8   10 am
    17   10   26 1
    18   10   27 1
    19   11   12 2
    20   11   13 1
    21   13   14 1
    22   13   18 2
    23   14   15 2
    24   15   17 1
    25   16   17 1
    26   17   18 1
    27   18   19 1
    28   19   21 1
    29   19   20 1
    30   19   28 1
    31   20   21 1
    32   20   29 1
    33   20   30 1
    34   21   31 1
    35   21   32 1
@<TRIPOS>MOLECULE
CHEMBL269827
   40    43     0     0     0
SMALL
USER_CHARGES

@<TRIPOS>ATOM
      1 C1         -0.0168    1.3857    0.0097 C.ar      1 <0>        -0.1743
      2 C2          1.1705    2.0906    0.0021 C.ar      1 <0>         0.0177
      3 C3          2.3775    1.4154   -0.0135 C.ar      1 <0>        -0.7009
      4 C4          2.4002    0.0326   -0.0216 C.ar      1 <0>         0.0138
      5 C5          1.2170   -0.6791   -0.0141 C.ar      1 <0>        -0.1593
      6 C6          0.0021   -0.0041    0.0020 C.ar      1 <0>         0.2258
      7 N1         -1.1956   -0.7198    0.0101 N.pl3     1 <0>        -0.4869
      8 N2         -1.1763   -2.0096    0.0030 N.2       1 <0>        -0.1124
      9 C7         -2.3044   -2.6837    0.0105 C.2       1 <0>        -0.0129
     10 C8         -2.4757   -4.1555    0.0104 C.ar      1 <0>        -0.0708
     11 C9         -1.5789   -5.2151    0.0018 C.ar      1 <0>        -0.0281
     12 C10        -2.0590   -6.5238    0.0038 C.ar      1 <0>        -0.0334
     13 C11        -3.4372   -6.7575    0.0145 C.ar      1 <0>        -0.0517
     14 C12        -4.3240   -5.7043    0.0230 C.ar      1 <0>        -0.1246
     15 C13        -3.8575   -4.3924    0.0211 C.ar      1 <0>         0.1596
     16 N3         -4.5298   -3.1758    0.0277 N.am      1 <0>        -0.6408
     17 C14        -3.6730   -2.1408    0.0276 C.2       1 <0>         0.5479
     18 O1         -3.9752   -0.9613    0.0371 O.2       1 <0>        -0.5145
     19 C15        -1.1140   -7.6606   -0.0058 C.2       1 <0>        -0.0004
     20 C16        -1.4351   -8.9798   -0.0105 C.2       1 <0>        -0.0205
     21 N4         -0.2875   -9.6747   -0.0198 N.2       1 <0>        -0.4856
     22 C17         0.7124   -8.8387   -0.0208 C.2       1 <0>         0.1790
     23 O2          0.2350   -7.5862   -0.0174 O.3       1 <0>        -0.1987
     24 S1          3.8900    2.3193   -0.0237 S.o2      1 <0>         2.7047
     25 O3          4.8718    1.4615   -0.5889 O.2       1 <0>        -0.9620
     26 O4          3.5944    3.5995   -0.5647 O.2       1 <0>        -0.9627
     27 N5          4.3260    2.5619    1.5554 N.pl3     1 <0>        -1.2502
     28 H1         -0.9588    1.9136    0.0260 H         1 <0>         0.1425
     29 H2          1.1567    3.1705    0.0080 H         1 <0>         0.1529
     30 H3          3.3446   -0.4912   -0.0341 H         1 <0>         0.1520
     31 H4          1.2354   -1.7589   -0.0212 H         1 <0>         0.1498
     32 H5         -2.0428   -0.2475    0.0210 H         1 <0>         0.4135
     33 H6         -0.5155   -5.0267   -0.0068 H         1 <0>         0.1412
     34 H7         -3.8090   -7.7715    0.0157 H         1 <0>         0.1437
     35 H8         -5.3867   -5.8967    0.0309 H         1 <0>         0.1428
     36 H9         -5.4956   -3.0854    0.0354 H         1 <0>         0.4248
     37 H10        -2.4324   -9.3942   -0.0072 H         1 <0>         0.1874
     38 H11         1.7575   -9.1112   -0.0274 H         1 <0>         0.2531
     39 H12         3.7673    2.2200    2.2708 H         1 <0>         0.4168
     40 H13         5.1400    3.0460    1.7648 H         1 <0>         0.4217
@<TRIPOS>BOND
     1    1    6 ar
     2    1    2 ar
     3    1   28 1
     4    2    3 ar
     5    2   29 1
     6    3    4 ar
     7    3   24 1
     8    4    5 ar
     9    4   30 1
    10    5    6 ar
    11    5   31 1
    12    6    7 1
    13    7    8 1
    14    7   32 1
    15    8    9 2
    16    9   17 1
    17    9   10 1
    18   10   15 ar
    19   10   11 ar
    20   11   12 ar
    21   11   33 1
    22   12   13 ar
    23   12   19 1
    24   13   14 ar
    25   13   34 1
    26   14   15 ar
    27   14   35 1
    28   15   16 1
    29   16   17 am
    30   16   36 1
    31   17   18 2
    32   19   23 1
    33   19   20 2
    34   20   21 1
    35   20   37 1
    36   21   22 2
    37   22   23 1
    38   22   38 1
    39   24   25 2
    40   24   26 2
    41   24   27 1
    42   27   39 1
    43   27   40 1
@<TRIPOS>MOLECULE
CHEMBL182498
   56    59     0     0     0
SMALL
USER_CHARGES

@<TRIPOS>ATOM
      1 C1         -0.4627    2.0452   -0.5498 C.3       1 <0>        -0.1453
      2 C2         -0.2536    0.5393   -0.3790 C.3       1 <0>        -0.0371
      3 C3          0.5702    0.2788    0.8837 C.3       1 <0>        -0.1453
      4 C4         -1.5916   -0.1429   -0.2555 C.ar      1 <0>        -0.1227
      5 C5         -2.4510    0.1933    0.7682 C.ar      1 <0>         0.1818
      6 C6         -3.6951   -0.4331    0.8934 C.ar      1 <0>        -0.2034
      7 C7         -4.0881   -1.3896    0.0085 C.ar      1 <0>        -0.0258
      8 C8         -3.2366   -1.7544   -1.0450 C.ar      1 <0>        -0.2299
      9 C9         -1.9743   -1.1195   -1.1831 C.ar      1 <0>         0.2408
     10 N1         -1.1793   -1.4799   -2.1994 N.ar      1 <0>        -0.5507
     11 C10        -1.5731   -2.4042   -3.0539 C.ar      1 <0>         0.5625
     12 N2         -2.7527   -3.0151   -2.9575 N.ar      1 <0>        -0.5633
     13 C11        -3.5962   -2.7366   -1.9853 C.ar      1 <0>         0.2467
     14 N3         -0.7272   -2.7529   -4.0923 N.pl3     1 <0>        -0.6386
     15 C12        -1.1629   -3.6438   -5.0816 C.ar      1 <0>         0.2192
     16 C13        -2.4946   -3.6471   -5.4750 C.ar      1 <0>        -0.1194
     17 C14        -2.9252   -4.5252   -6.4504 C.ar      1 <0>        -0.0689
     18 C15        -2.0270   -5.4051   -7.0381 C.ar      1 <0>         0.0838
     19 C16        -0.6933   -5.4026   -6.6449 C.ar      1 <0>         0.1274
     20 C17        -0.2618   -4.5195   -5.6726 C.ar      1 <0>        -0.1845
     21 F1          0.1815   -6.2590   -7.2162 F         1 <0>        -0.1305
     22 N4         -2.4642   -6.2961   -8.0272 N.pl3     1 <0>        -0.6696
     23 C18        -2.9657   -7.6329   -7.6729 C.3       1 <0>         0.1161
     24 C19        -4.3169   -7.8437   -8.3641 C.3       1 <0>        -0.0230
     25 N5         -4.1685   -7.6149   -9.8069 N.4       1 <0>        -0.5030
     26 C20        -3.8115   -6.2127  -10.0567 C.3       1 <0>        -0.0227
     27 C21        -2.4406   -5.9189   -9.4489 C.3       1 <0>         0.1155
     28 O1         -2.0853    1.1439    1.6661 O.3       1 <0>        -0.2974
     29 C22        -3.0186    1.4489    2.7044 C.3       1 <0>         0.0178
     30 H1          0.5051    2.5387   -0.6391 H         1 <0>         0.0573
     31 H2         -1.0496    2.2308   -1.4494 H         1 <0>         0.0478
     32 H3         -0.9927    2.4391    0.3174 H         1 <0>         0.0668
     33 H4          0.2764    0.1454   -1.2462 H         1 <0>         0.0889
     34 H5          0.0402    0.6726    1.7510 H         1 <0>         0.0664
     35 H6          0.7192   -0.7941    1.0054 H         1 <0>         0.0481
     36 H7          1.5380    0.7722    0.7944 H         1 <0>         0.0575
     37 H8         -4.3528   -0.1544    1.7034 H         1 <0>         0.1406
     38 H9         -5.0512   -1.8660    0.1172 H         1 <0>         0.1412
     39 H10        -4.5486   -3.2416   -1.9193 H         1 <0>         0.1803
     40 H11         0.1673   -2.3803   -4.1351 H         1 <0>         0.4294
     41 H12        -3.1941   -2.9629   -5.0178 H         1 <0>         0.1460
     42 H13        -3.9612   -4.5273   -6.7555 H         1 <0>         0.1326
     43 H14         0.7748   -4.5139   -5.3697 H         1 <0>         0.1439
     44 H15        -2.2591   -8.3907   -8.0111 H         1 <0>         0.0797
     45 H16        -3.0923   -7.7021   -6.5925 H         1 <0>         0.1167
     46 H17        -4.6582   -8.8643   -8.1912 H         1 <0>         0.1395
     47 H18        -5.0462   -7.1427   -7.9580 H         1 <0>         0.1324
     48 H19        -3.4424   -8.2151  -10.1684 H         1 <0>         0.4279
     49 H20        -3.7804   -6.0314  -11.1311 H         1 <0>         0.1399
     50 H21        -4.5561   -5.5610   -9.5994 H         1 <0>         0.1322
     51 H22        -2.2201   -4.8555   -9.5422 H         1 <0>         0.1166
     52 H23        -1.6800   -6.5007   -9.9696 H         1 <0>         0.0793
     53 H24        -3.9493    1.8055    2.2631 H         1 <0>         0.0601
     54 H25        -3.2151    0.5517    3.2913 H         1 <0>         0.0602
     55 H26        -2.6032    2.2221    3.3507 H         1 <0>         0.1068
     56 H27        -5.0389   -7.8269  -10.2711 H         1 <0>         0.4311
@<TRIPOS>BOND
     1    1    2 1
     2    1   30 1
     3    1   31 1
     4    1   32 1
     5    2    3 1
     6    2    4 1
     7    2   33 1
     8    3   34 1
     9    3   35 1
    10    3   36 1
    11    4    9 ar
    12    4    5 ar
    13    5    6 ar
    14    5   28 1
    15    6    7 ar
    16    6   37 1
    17    7    8 ar
    18    7   38 1
    19    8   13 ar
    20    8    9 ar
    21    9   10 ar
    22   10   11 ar
    23   11   12 ar
    24   11   14 1
    25   12   13 ar
    26   13   39 1
    27   14   15 1
    28   14   40 1
    29   15   20 ar
    30   15   16 ar
    31   16   17 ar
    32   16   41 1
    33   17   18 ar
    34   17   42 1
    35   18   19 ar
    36   18   22 1
    37   19   20 ar
    38   19   21 1
    39   20   43 1
    40   22   27 1
    41   22   23 1
    42   23   24 1
    43   23   44 1
    44   23   45 1
    45   24   25 1
    46   24   46 1
    47   24   47 1
    48   25   26 1
    49   25   48 1
    50   25   56 1
    51   26   27 1
    52   26   49 1
    53   26   50 1
    54   27   51 1
    55   27   52 1
    56   28   29 1
    57   29   53 1
    58   29   54 1
    59   29   55 1
@<TRIPOS>MOLECULE
CHEMBL184404
   40    43     0     0     0
SMALL
USER_CHARGES

@<TRIPOS>ATOM
      1 C1         -0.0168    1.3891    0.0097 C.ar      1 <0>        -0.1189
      2 C2          1.1399    2.1082    0.0025 C.ar      1 <0>        -0.0794
      3 C3          2.3717    1.4361   -0.0128 C.ar      1 <0>        -0.1134
      4 C4          3.5965    2.1233   -0.0202 C.ar      1 <0>         0.1505
      5 N1          4.7235    1.4508   -0.0342 N.ar      1 <0>        -0.4893
      6 C5          4.7687    0.1255   -0.0418 C.ar      1 <0>         0.0820
      7 C6          3.6377   -0.6328   -0.0356 C.ar      1 <0>        -0.1581
      8 C7          2.3897    0.0168   -0.0206 C.ar      1 <0>        -0.0039
      9 C8          1.1791   -0.6902   -0.0128 C.ar      1 <0>        -0.0701
     10 C9          0.0021   -0.0041    0.0020 C.ar      1 <0>        -0.0776
     11 C10         1.1796   -2.1972   -0.0213 C.3       1 <0>        -0.0964
     12 C11         1.3174   -2.7074    1.3899 C.2       1 <0>         0.5056
     13 O1          1.4064   -1.9245    2.3119 O.2       1 <0>        -0.4535
     14 N2          1.3417   -4.0339    1.6275 N.am      1 <0>        -0.6254
     15 C12         1.4688   -4.5045    2.9293 C.2       1 <0>         0.2644
     16 N3          1.5707   -3.8116    4.0427 N.2       1 <0>        -0.5165
     17 C13         1.6860   -4.4127    5.2124 C.2       1 <0>         0.0597
     18 C14         1.6942   -5.7684    5.2102 C.2       1 <0>        -0.1940
     19 S1          1.5223   -6.0994    3.4642 S.3       1 <0>         0.1108
     20 C15         1.8110   -6.7308    6.3640 C.3       1 <0>        -0.0211
     21 C16         2.6496   -7.9791    6.0426 C.3       1 <0>        -0.1347
     22 C17         1.6122   -8.7853    6.8417 C.3       1 <0>        -0.1422
     23 C18         0.6044   -7.6739    6.5041 C.3       1 <0>        -0.1333
     24 H1         -0.9642    1.9073    0.0261 H         1 <0>         0.1305
     25 H2          1.1093    3.1878    0.0082 H         1 <0>         0.1358
     26 H3          3.6110    3.2032   -0.0148 H         1 <0>         0.1650
     27 H4          5.7301   -0.3665   -0.0537 H         1 <0>         0.1528
     28 H5          3.6974   -1.7111   -0.0424 H         1 <0>         0.1311
     29 H6         -0.9306   -0.5485    0.0083 H         1 <0>         0.1272
     30 H7          0.2442   -2.5584   -0.4486 H         1 <0>         0.1145
     31 H8          2.0158   -2.5568   -0.6210 H         1 <0>         0.1118
     32 H9          1.2705   -4.6601    0.8902 H         1 <0>         0.4256
     33 H10         1.7704   -3.8496    6.1301 H         1 <0>         0.1734
     34 H11         2.0934   -6.2416    7.2963 H         1 <0>         0.1160
     35 H12         2.6730   -8.2280    4.9816 H         1 <0>         0.0816
     36 H13         3.6398   -7.9691    6.4980 H         1 <0>         0.0752
     37 H14         1.3672   -9.7479    6.3928 H         1 <0>         0.0722
     38 H15         1.8411   -8.8590    7.9048 H         1 <0>         0.0852
     39 H16        -0.0564   -7.4174    7.3322 H         1 <0>         0.0746
     40 H17         0.0687   -7.8393    5.5694 H         1 <0>         0.0823
@<TRIPOS>BOND
     1    1   10 ar
     2    1    2 ar
     3    1   24 1
     4    2    3 ar
     5    2   25 1
     6    3    8 ar
     7    3    4 ar
     8    4    5 ar
     9    4   26 1
    10    5    6 ar
    11    6    7 ar
    12    6   27 1
    13    7    8 ar
    14    7   28 1
    15    8    9 ar
    16    9   10 ar
    17    9   11 1
    18   10   29 1
    19   11   12 1
    20   11   30 1
    21   11   31 1
    22   12   13 2
    23   12   14 am
    24   14   15 1
    25   14   32 1
    26   15   19 1
    27   15   16 2
    28   16   17 1
    29   17   18 2
    30   17   33 1
    31   18   19 1
    32   18   20 1
    33   20   23 1
    34   20   21 1
    35   20   34 1
    36   21   22 1
    37   21   35 1
    38   21   36 1
    39   22   23 1
    40   22   37 1
    41   22   38 1
    42   23   39 1
    43   23   40 1
@<TRIPOS>MOLECULE
CHEMBL561179
   36    39     0     0     0
SMALL
USER_CHARGES

@<TRIPOS>ATOM
      1 C1         -0.0169    1.3916    0.0097 C.ar      1 <0>        -0.0183
      2 C2          1.1676    2.0954    0.0022 C.ar      1 <0>        -0.1980
      3 C3          2.3813    1.4165   -0.0131 C.ar      1 <0>         0.2573
      4 C4          2.4030    0.0259   -0.0212 C.ar      1 <0>        -0.2024
      5 C5          1.2216   -0.6829   -0.0137 C.ar      1 <0>        -0.0032
      6 C6          0.0021   -0.0041    0.0020 C.ar      1 <0>        -0.1036
      7 C7         -1.2678   -0.7623    0.0101 C.2       1 <0>         0.2123
      8 N1         -1.4518   -2.0583    0.0102 N.2       1 <0>        -0.2796
      9 N2         -2.7293   -2.6025    0.0193 N.pl3     1 <0>        -0.3364
     10 C8         -3.3489   -3.8355    0.0228 C.2       1 <0>         0.2283
     11 N3         -4.6376   -3.6391    0.0326 N.2       1 <0>        -0.2275
     12 N4         -4.8916   -2.3767    0.0356 N.2       1 <0>        -0.2200
     13 C9         -3.7755   -1.7128    0.0279 C.2       1 <0>         0.1125
     14 S1         -2.9435   -0.1444    0.0300 S.3       1 <0>         0.1452
     15 C10        -2.6571   -5.1743    0.0159 C.3       1 <0>         0.1514
     16 O1         -2.4280   -5.5989    1.3610 O.3       1 <0>        -0.3048
     17 C11        -1.8080   -6.7962    1.5329 C.ar      1 <0>         0.1374
     18 C12        -1.4232   -7.5439    0.4296 C.ar      1 <0>        -0.1966
     19 C13        -0.7933   -8.7605    0.6064 C.ar      1 <0>        -0.0668
     20 C14        -0.5465   -9.2338    1.8829 C.ar      1 <0>        -0.0713
     21 C15        -0.9300   -8.4898    2.9847 C.ar      1 <0>        -0.0680
     22 C16        -1.5542   -7.2695    2.8120 C.ar      1 <0>        -0.1347
     23 Cl1         0.2447  -10.7633    2.1026 Cl        1 <0>        -0.0673
     24 N5          3.5786    2.1313   -0.0207 N.pl3     1 <0>        -0.8625
     25 H1         -0.9590    1.9192    0.0260 H         1 <0>         0.1327
     26 H2          1.1535    3.1753    0.0077 H         1 <0>         0.1366
     27 H3          3.3469   -0.4988   -0.0338 H         1 <0>         0.1349
     28 H4          1.2391   -1.7627   -0.0204 H         1 <0>         0.1375
     29 H5         -3.2850   -5.9051   -0.4939 H         1 <0>         0.1098
     30 H6         -1.7037   -5.0879   -0.5053 H         1 <0>         0.0940
     31 H7         -1.6163   -7.1751   -0.5670 H         1 <0>         0.1384
     32 H8         -0.4935   -9.3429   -0.2524 H         1 <0>         0.1388
     33 H9         -0.7368   -8.8610    3.9803 H         1 <0>         0.1426
     34 H10        -1.8490   -6.6868    3.6721 H         1 <0>         0.1416
     35 H11         3.5644    3.1012   -0.0153 H         1 <0>         0.4048
     36 H12         4.4256    1.6587   -0.0313 H         1 <0>         0.4049
@<TRIPOS>BOND
     1    1    6 ar
     2    1    2 ar
     3    1   25 1
     4    2    3 ar
     5    2   26 1
     6    3    4 ar
     7    3   24 1
     8    4    5 ar
     9    4   27 1
    10    5    6 ar
    11    5   28 1
    12    6    7 1
    13    7   14 1
    14    7    8 2
    15    8    9 1
    16    9   13 1
    17    9   10 1
    18   10   11 2
    19   10   15 1
    20   11   12 1
    21   12   13 2
    22   13   14 1
    23   15   16 1
    24   15   29 1
    25   15   30 1
    26   16   17 1
    27   17   22 ar
    28   17   18 ar
    29   18   19 ar
    30   18   31 1
    31   19   20 ar
    32   19   32 1
    33   20   21 ar
    34   20   23 1
    35   21   22 ar
    36   21   33 1
    37   22   34 1
    38   24   35 1
    39   24   36 1
@<TRIPOS>MOLECULE
CHEMBL115319
   30    32     0     0     0
SMALL
USER_CHARGES

@<TRIPOS>ATOM
      1 C1         -0.0169    1.3920    0.0097 C.ar      1 <0>        -0.0474
      2 C2          1.1696    2.0948    0.0021 C.ar      1 <0>        -0.0969
      3 C3          2.3781    1.4188   -0.0135 C.ar      1 <0>        -0.0644
      4 C4          2.4034    0.0343   -0.0216 C.ar      1 <0>        -0.0966
      5 C5          1.2237   -0.6799   -0.0137 C.ar      1 <0>        -0.0787
      6 C6          0.0021   -0.0041    0.0020 C.ar      1 <0>        -0.1204
      7 C7         -1.2657   -0.7633    0.0100 C.2       1 <0>         0.5704
      8 O1         -2.3280   -0.1723    0.0234 O.2       1 <0>        -0.5016
      9 N1         -1.2442   -2.1108    0.0026 N.am      1 <0>        -0.6308
     10 C8         -2.4461   -2.8305    0.0102 C.2       1 <0>         0.3027
     11 C9         -3.7376   -2.2794    0.0199 C.2       1 <0>        -0.2587
     12 C10        -4.6244   -3.3003    0.0250 C.2       1 <0>         0.1325
     13 N2         -3.9261   -4.4553    0.0188 N.pl3     1 <0>        -0.4654
     14 H1         -4.3030   -5.3491    0.0201 H         1 <0>         0.4400
     15 N3         -2.5619   -4.1377    0.0038 N.2       1 <0>        -0.3158
     16 C11        -6.1258   -3.1713    0.0361 C.3       1 <0>        -0.0991
     17 C12        -6.9209   -4.2379    0.7919 C.3       1 <0>        -0.1700
     18 C13        -6.9305   -4.2174   -0.7379 C.3       1 <0>        -0.1697
     19 Br1         4.0004    2.3903   -0.0244 Br        1 <0>        -0.0360
     20 H2         -0.9587    1.9203    0.0260 H         1 <0>         0.1499
     21 H3          1.1563    3.1747    0.0081 H         1 <0>         0.1443
     22 H4          3.3490   -0.4873   -0.0345 H         1 <0>         0.1431
     23 H5          1.2447   -1.7597   -0.0205 H         1 <0>         0.1371
     24 H6         -0.3966   -2.5823   -0.0080 H         1 <0>         0.4159
     25 H7         -3.9797   -1.2269    0.0228 H         1 <0>         0.1740
     26 H8         -6.5099   -2.1514    0.0518 H         1 <0>         0.1351
     27 H9         -6.3580   -5.0328    1.2811 H         1 <0>         0.0949
     28 H10        -7.8283   -3.9196    1.3052 H         1 <0>         0.1084
     29 H11        -7.8442   -3.8858   -1.2311 H         1 <0>         0.1084
     30 H12        -6.3739   -4.9990   -1.2552 H         1 <0>         0.0950
@<TRIPOS>BOND
     1    1    6 ar
     2    1    2 ar
     3    1   20 1
     4    2    3 ar
     5    2   21 1
     6    3    4 ar
     7    3   19 1
     8    4    5 ar
     9    4   22 1
    10    5    6 ar
    11    5   23 1
    12    6    7 1
    13    7    8 2
    14    7    9 am
    15    9   10 1
    16    9   24 1
    17   10   15 2
    18   10   11 1
    19   11   12 2
    20   11   25 1
    21   12   13 1
    22   12   16 1
    23   13   14 1
    24   13   15 1
    25   16   18 1
    26   16   17 1
    27   16   26 1
    28   17   18 1
    29   17   27 1
    30   17   28 1
    31   18   29 1
    32   18   30 1
@<TRIPOS>MOLECULE
CHEMBL115319
   30    32     0     0     0
SMALL
USER_CHARGES

@<TRIPOS>ATOM
      1 C1         -0.0169    1.3920    0.0097 C.ar      1 <0>        -0.0463
      2 C2          1.1696    2.0949    0.0021 C.ar      1 <0>        -0.0954
      3 C3          2.3781    1.4188   -0.0130 C.ar      1 <0>        -0.0635
      4 C4          2.4035    0.0343   -0.0212 C.ar      1 <0>        -0.0963
      5 C5          1.2238   -0.6799   -0.0137 C.ar      1 <0>        -0.0802
      6 C6          0.0021   -0.0041    0.0020 C.ar      1 <0>        -0.1211
      7 C7         -1.2656   -0.7632    0.0105 C.2       1 <0>         0.5687
      8 O1         -2.3279   -0.1722    0.0243 O.2       1 <0>        -0.4917
      9 N1         -1.2441   -2.1108    0.0031 N.am      1 <0>        -0.6458
     10 C8         -2.4399   -2.8269    0.0111 C.2       1 <0>         0.3041
     11 C9         -3.6947   -2.2988    0.0264 C.2       1 <0>        -0.2646
     12 C10        -4.6055   -3.3585    0.0298 C.2       1 <0>         0.1221
     13 N2         -3.9342   -4.4814    0.0171 N.2       1 <0>        -0.2746
     14 H1         -1.8396   -4.8209   -0.0164 H         1 <0>         0.4373
     15 N3         -2.5666   -4.1790   -0.0008 N.pl3     1 <0>        -0.4917
     16 C11        -6.1069   -3.2297    0.0454 C.3       1 <0>        -0.0860
     17 C12        -6.6956   -1.8741    0.4412 C.3       1 <0>        -0.1631
     18 C13        -6.7872   -3.0587    1.4051 C.3       1 <0>        -0.1632
     19 Br1         4.0004    2.3903   -0.0233 Br        1 <0>        -0.0336
     20 H2         -0.9587    1.9204    0.0260 H         1 <0>         0.1508
     21 H3          1.1563    3.1748    0.0077 H         1 <0>         0.1456
     22 H4          3.3491   -0.4873   -0.0337 H         1 <0>         0.1434
     23 H5          1.2448   -1.7597   -0.0205 H         1 <0>         0.1345
     24 H6         -0.3965   -2.5823   -0.0079 H         1 <0>         0.4121
     25 H7         -3.9421   -1.2476    0.0348 H         1 <0>         0.1751
     26 H8         -6.6361   -3.8064   -0.7132 H         1 <0>         0.1222
     27 H9         -5.9969   -1.0754    0.6903 H         1 <0>         0.1018
     28 H10        -7.6123   -1.5586   -0.0571 H         1 <0>         0.1026
     29 H11        -7.7641   -3.5226    1.5410 H         1 <0>         0.1016
     30 H12        -6.1488   -3.0394    2.2884 H         1 <0>         0.0953
@<TRIPOS>BOND
     1    1    6 ar
     2    1    2 ar
     3    1   20 1
     4    2    3 ar
     5    2   21 1
     6    3    4 ar
     7    3   19 1
     8    4    5 ar
     9    4   22 1
    10    5    6 ar
    11    5   23 1
    12    6    7 1
    13    7    8 2
    14    7    9 am
    15    9   24 1
    16    9   10 1
    17   10   11 2
    18   10   15 1
    19   11   12 1
    20   11   25 1
    21   12   13 2
    22   12   16 1
    23   13   15 1
    24   14   15 1
    25   16   18 1
    26   16   17 1
    27   16   26 1
    28   17   18 1
    29   17   27 1
    30   17   28 1
    31   18   29 1
    32   18   30 1
@<TRIPOS>MOLECULE
CHEMBL509772
   48    50     0     0     0
SMALL
USER_CHARGES

@<TRIPOS>ATOM
      1 C1         -0.0187    1.5258    0.0104 C.3       1 <0>        -0.1425
      2 C2          0.0021   -0.0041    0.0020 C.3       1 <0>         0.0153
      3 C3          0.7421   -0.5109    1.2415 C.3       1 <0>        -0.1426
      4 C4         -1.4333   -0.5336    0.0129 C.3       1 <0>        -0.1470
      5 C5          0.7074   -0.4901   -1.2379 C.2       1 <0>        -0.0065
      6 C6          1.9790   -0.2319   -1.5855 C.2       1 <0>        -0.0388
      7 N1          2.2153   -0.8490   -2.7568 N.2       1 <0>        -0.4474
      8 C7          1.1320   -1.4698   -3.1277 C.2       1 <0>         0.1764
      9 O1          0.1830   -1.2702   -2.2034 O.3       1 <0>        -0.1871
     10 C8          0.9740   -2.2836   -4.3862 C.3       1 <0>        -0.0237
     11 S1          1.4238   -4.0087   -4.0512 S.3       1 <0>         0.0393
     12 C9          1.1895   -4.8185   -5.5985 C.2       1 <0>        -0.2271
     13 C10         1.3712   -6.1253   -5.9312 C.2       1 <0>         0.0874
     14 N2          1.1326   -6.5237   -7.1691 N.2       1 <0>        -0.5491
     15 C11         0.7199   -5.6765   -8.0939 C.2       1 <0>         0.3579
     16 S2          0.6397   -4.1518   -7.1640 S.3       1 <0>         0.0168
     17 N3          0.4218   -5.9090   -9.4308 N.pl3     1 <0>        -0.6776
     18 C12         0.5537   -7.2580   -9.9869 C.3       1 <0>         0.1532
     19 C13         2.0009   -7.4894  -10.4311 C.3       1 <0>        -0.1659
     20 C14         2.1141   -8.8692  -11.0829 C.3       1 <0>        -0.0029
     21 N4          1.2257   -8.9378  -12.2493 N.4       1 <0>        -0.5071
     22 C15        -0.1704   -8.7882  -11.8215 C.3       1 <0>        -0.0002
     23 C16        -0.3715   -7.4053  -11.1982 C.3       1 <0>        -0.1596
     24 H1          1.0039    1.9031    0.0027 H         1 <0>         0.0647
     25 H2         -0.5459    1.8868   -0.8726 H         1 <0>         0.0608
     26 H3         -0.5289    1.8773    0.9072 H         1 <0>         0.0750
     27 H4          0.2319   -0.1594    2.1383 H         1 <0>         0.0751
     28 H5          0.7568   -1.6008    1.2356 H         1 <0>         0.0615
     29 H6          1.7647   -0.1336    1.2338 H         1 <0>         0.0647
     30 H7         -1.9605   -0.1726   -0.8702 H         1 <0>         0.0606
     31 H8         -1.4185   -1.6235    0.0069 H         1 <0>         0.0615
     32 H9         -1.9435   -0.1821    0.9097 H         1 <0>         0.0705
     33 H10         2.6845    0.3639   -1.0254 H         1 <0>         0.1887
     34 H11        -0.0621   -2.2368   -4.7214 H         1 <0>         0.1188
     35 H12         1.6255   -1.8824   -5.1625 H         1 <0>         0.1310
     36 H13         1.7086   -6.8330   -5.1884 H         1 <0>         0.1741
     37 H14         0.1263   -5.1782   -9.9961 H         1 <0>         0.4233
     38 H15         0.2819   -7.9928   -9.2290 H         1 <0>         0.1078
     39 H16         2.2879   -6.7224  -11.1505 H         1 <0>         0.0918
     40 H17         2.6599   -7.4412   -9.5643 H         1 <0>         0.1189
     41 H18         3.1433   -9.0373  -11.4002 H         1 <0>         0.1377
     42 H19         1.8271   -9.6354  -10.3627 H         1 <0>         0.1349
     43 H20         1.4602   -8.1973  -12.8934 H         1 <0>         0.4286
     44 H21        -0.8279   -8.8965  -12.6842 H         1 <0>         0.1404
     45 H22        -0.4087   -9.5561  -11.0856 H         1 <0>         0.1356
     46 H23        -1.4083   -7.2969  -10.8796 H         1 <0>         0.1214
     47 H24        -0.1338   -6.6366  -11.9335 H         1 <0>         0.0965
     48 H25         1.3423   -9.8290  -12.7078 H         1 <0>         0.4350
@<TRIPOS>BOND
     1    1    2 1
     2    1   24 1
     3    1   25 1
     4    1   26 1
     5    2    3 1
     6    2    4 1
     7    2    5 1
     8    3   27 1
     9    3   28 1
    10    3   29 1
    11    4   30 1
    12    4   31 1
    13    4   32 1
    14    5    9 1
    15    5    6 2
    16    6    7 1
    17    6   33 1
    18    7    8 2
    19    8    9 1
    20    8   10 1
    21   10   11 1
    22   10   34 1
    23   10   35 1
    24   11   12 1
    25   12   16 1
    26   12   13 2
    27   13   14 1
    28   13   36 1
    29   14   15 2
    30   15   16 1
    31   15   17 1
    32   17   18 1
    33   17   37 1
    34   18   23 1
    35   18   19 1
    36   18   38 1
    37   19   20 1
    38   19   39 1
    39   19   40 1
    40   20   21 1
    41   20   41 1
    42   20   42 1
    43   21   22 1
    44   21   43 1
    45   21   48 1
    46   22   23 1
    47   22   44 1
    48   22   45 1
    49   23   46 1
    50   23   47 1
@<TRIPOS>MOLECULE
CHEMBL430703
   32    33     0     0     0
SMALL
USER_CHARGES

@<TRIPOS>ATOM
      1 C1         -0.0187    1.5258    0.0104 C.3       1 <0>        -0.1539
      2 C2          0.0021   -0.0041    0.0020 C.3       1 <0>        -0.0354
      3 C3          0.7421   -0.5109    1.2415 C.3       1 <0>        -0.1460
      4 C4         -1.4117   -0.5257    0.0127 C.2       1 <0>         0.1087
      5 C5         -1.8536   -1.6409   -0.6116 C.2       1 <0>        -0.2649
      6 C6         -3.2273   -1.7662   -0.3487 C.2       1 <0>         0.3012
      7 N1         -3.5902   -0.7573    0.4080 N.2       1 <0>        -0.3189
      8 N2         -2.4604    0.0341    0.6519 N.pl3     1 <0>        -0.4621
      9 H1         -2.4364    0.8440    1.1853 H         1 <0>         0.4405
     10 N3         -4.0642   -2.7889   -0.8135 N.am      1 <0>        -0.6310
     11 C7         -3.5621   -3.7708   -1.5883 C.2       1 <0>         0.5701
     12 O1         -2.3828   -3.7689   -1.8838 O.2       1 <0>        -0.5020
     13 C8         -4.4449   -4.8496   -2.0786 C.ar      1 <0>        -0.1203
     14 C9         -5.8008   -4.8514   -1.7457 C.ar      1 <0>        -0.0788
     15 C10        -6.6197   -5.8607   -2.2068 C.ar      1 <0>        -0.0966
     16 C11        -6.0996   -6.8710   -2.9983 C.ar      1 <0>        -0.0645
     17 C12        -4.7555   -6.8750   -3.3315 C.ar      1 <0>        -0.0969
     18 C13        -3.9276   -5.8681   -2.8814 C.ar      1 <0>        -0.0476
     19 Br1        -7.2295   -8.2512   -3.6263 Br        1 <0>        -0.0361
     20 H2          1.0039    1.9031    0.0027 H         1 <0>         0.0707
     21 H3         -0.5459    1.8868   -0.8726 H         1 <0>         0.0615
     22 H4         -0.5289    1.8773    0.9072 H         1 <0>         0.0534
     23 H5          0.5123   -0.3556   -0.8948 H         1 <0>         0.1009
     24 H6          0.7568   -1.6008    1.2356 H         1 <0>         0.0633
     25 H7          1.7647   -0.1336    1.2338 H         1 <0>         0.0675
     26 H8          0.2319   -0.1594    2.1383 H         1 <0>         0.0549
     27 H9         -1.2562   -2.3152   -1.2073 H         1 <0>         0.1725
     28 H10        -5.0051   -2.7905   -0.5777 H         1 <0>         0.4155
     29 H11        -6.2074   -4.0642   -1.1282 H         1 <0>         0.1370
     30 H12        -7.6686   -5.8635   -1.9497 H         1 <0>         0.1431
     31 H13        -4.3557   -7.6658   -3.9489 H         1 <0>         0.1443
     32 H14        -2.8804   -5.8699   -3.1456 H         1 <0>         0.1498
@<TRIPOS>BOND
     1    1    2 1
     2    1   20 1
     3    1   21 1
     4    1   22 1
     5    2    3 1
     6    2    4 1
     7    2   23 1
     8    3   24 1
     9    3   25 1
    10    3   26 1
    11    4    8 1
    12    4    5 2
    13    5    6 1
    14    5   27 1
    15    6    7 2
    16    6   10 1
    17    7    8 1
    18    8    9 1
    19   10   11 am
    20   10   28 1
    21   11   12 2
    22   11   13 1
    23   13   18 ar
    24   13   14 ar
    25   14   15 ar
    26   14   29 1
    27   15   16 ar
    28   15   30 1
    29   16   17 ar
    30   16   19 1
    31   17   18 ar
    32   17   31 1
    33   18   32 1
@<TRIPOS>MOLECULE
CHEMBL430703
   32    33     0     0     0
SMALL
USER_CHARGES

@<TRIPOS>ATOM
      1 C1         -0.0187    1.5258    0.0104 C.3       1 <0>        -0.1422
      2 C2          0.0021   -0.0041    0.0020 C.3       1 <0>        -0.0167
      3 C3          0.7421   -0.5109    1.2415 C.3       1 <0>        -0.1440
      4 C4         -1.4117   -0.5257    0.0127 C.2       1 <0>         0.0990
      5 C5         -2.2035   -0.7166    1.1481 C.2       1 <0>        -0.2640
      6 C6         -3.4094   -1.1989    0.7399 C.2       1 <0>         0.3025
      7 N1         -3.3692   -1.3053   -0.6134 N.pl3     1 <0>        -0.4934
      8 N2         -2.1076   -0.8711   -1.0400 N.2       1 <0>        -0.2808
      9 H1         -4.0874   -1.6219   -1.1833 H         1 <0>         0.4362
     10 N3         -4.4880   -1.5241    1.5607 N.am      1 <0>        -0.6459
     11 C7         -4.3898   -1.3681    2.8958 C.2       1 <0>         0.5685
     12 O1         -3.3604   -0.9439    3.3842 O.2       1 <0>        -0.4918
     13 C8         -5.5332   -1.7128    3.7660 C.ar      1 <0>        -0.1209
     14 C9         -6.7147   -2.2056    3.2086 C.ar      1 <0>        -0.0804
     15 C10        -7.7783   -2.5254    4.0260 C.ar      1 <0>        -0.0963
     16 C11        -7.6763   -2.3587    5.3970 C.ar      1 <0>        -0.0637
     17 C12        -6.5073   -1.8699    5.9557 C.ar      1 <0>        -0.0955
     18 C13        -5.4345   -1.5523    5.1495 C.ar      1 <0>        -0.0464
     19 Br1        -9.1396   -2.7997    6.5106 Br        1 <0>        -0.0337
     20 H2          1.0039    1.9031    0.0027 H         1 <0>         0.0645
     21 H3         -0.5459    1.8868   -0.8726 H         1 <0>         0.0561
     22 H4         -0.5289    1.8773    0.9072 H         1 <0>         0.0596
     23 H5          0.5123   -0.3556   -0.8948 H         1 <0>         0.0858
     24 H6          0.2319   -0.1594    2.1383 H         1 <0>         0.0629
     25 H7          0.7568   -1.6008    1.2356 H         1 <0>         0.0570
     26 H8          1.7647   -0.1336    1.2338 H         1 <0>         0.0634
     27 H9         -1.9106   -0.5175    2.1684 H         1 <0>         0.1746
     28 H10        -5.3093   -1.8625    1.1711 H         1 <0>         0.4116
     29 H11        -6.7955   -2.3358    2.1395 H         1 <0>         0.1344
     30 H12        -8.6928   -2.9064    3.5961 H         1 <0>         0.1433
     31 H13        -6.4341   -1.7414    7.0256 H         1 <0>         0.1455
     32 H14        -4.5217   -1.1757    5.5868 H         1 <0>         0.1508
@<TRIPOS>BOND
     1    1    2 1
     2    1   20 1
     3    1   21 1
     4    1   22 1
     5    2    3 1
     6    2   23 1
     7    2    4 1
     8    3   24 1
     9    3   25 1
    10    3   26 1
    11    4    8 2
    12    4    5 1
    13    5   27 1
    14    5    6 2
    15    6   10 1
    16    6    7 1
    17    7    8 1
    18    7    9 1
    19   10   11 am
    20   10   28 1
    21   11   12 2
    22   11   13 1
    23   13   18 ar
    24   13   14 ar
    25   14   15 ar
    26   14   29 1
    27   15   16 ar
    28   15   30 1
    29   16   17 ar
    30   16   19 1
    31   17   18 ar
    32   17   31 1
    33   18   32 1
@<TRIPOS>MOLECULE
CHEMBL186240
   39    42     0     0     0
SMALL
USER_CHARGES

@<TRIPOS>ATOM
      1 C1         -0.0165    1.3620    0.0095 C.ar      1 <0>        -0.1436
      2 C2          1.1697    2.0834    0.0021 C.ar      1 <0>        -0.0996
      3 C3          2.3856    1.4362   -0.0134 C.ar      1 <0>        -0.1288
      4 C4          2.4281    0.0456   -0.0212 C.ar      1 <0>         0.0954
      5 C5          1.2234   -0.6807   -0.0132 C.ar      1 <0>        -0.0891
      6 C6          0.0021   -0.0041    0.0020 C.ar      1 <0>        -0.0712
      7 C7          1.6036   -2.0953   -0.0245 C.2       1 <0>        -0.1658
      8 C8          2.9451   -2.1410   -0.0380 C.2       1 <0>         0.0737
      9 N1          3.4551   -0.8713   -0.0363 N.pl3     1 <0>        -0.5925
     10 H1          4.3995   -0.6501   -0.0442 H         1 <0>         0.4174
     11 C9          0.6664   -3.2754   -0.0210 C.3       1 <0>        -0.0545
     12 C10         0.2425   -3.5844   -1.4338 C.2       1 <0>         0.5024
     13 O1          0.6603   -2.9124   -2.3530 O.2       1 <0>        -0.4539
     14 N2         -0.6008   -4.6075   -1.6759 N.am      1 <0>        -0.6274
     15 C11        -0.9918   -4.8924   -2.9790 C.2       1 <0>         0.2693
     16 N3         -0.6399   -4.2823   -4.0899 N.2       1 <0>        -0.5185
     17 C12        -1.1029   -4.6773   -5.2614 C.2       1 <0>         0.0610
     18 C13        -1.9520   -5.7341   -5.2638 C.2       1 <0>        -0.1975
     19 S1         -2.0246   -6.1065   -3.5192 S.3       1 <0>         0.1052
     20 C14        -2.6407   -6.4112   -6.4207 C.3       1 <0>        -0.0201
     21 C15        -4.0738   -6.8689   -6.1022 C.3       1 <0>        -0.1347
     22 C16        -3.7616   -8.1424   -6.9056 C.3       1 <0>        -0.1424
     23 C17        -2.2816   -7.8994   -6.5659 C.3       1 <0>        -0.1334
     24 H2         -0.9613    1.8849    0.0259 H         1 <0>         0.1220
     25 H3          1.1388    3.1630    0.0081 H         1 <0>         0.1253
     26 H4          3.3028    2.0064   -0.0198 H         1 <0>         0.1199
     27 H5         -0.9246   -0.5587    0.0082 H         1 <0>         0.1168
     28 H6          3.5346   -3.0459   -0.0490 H         1 <0>         0.1698
     29 H7          1.1742   -4.1414    0.4036 H         1 <0>         0.1066
     30 H8         -0.2127   -3.0396    0.5787 H         1 <0>         0.1065
     31 H9         -0.9350   -5.1449   -0.9407 H         1 <0>         0.4246
     32 H10        -0.8181   -4.1804   -6.1771 H         1 <0>         0.1723
     33 H11        -2.5570   -5.8491   -7.3509 H         1 <0>         0.1152
     34 H12        -4.2478   -7.0532   -5.0420 H         1 <0>         0.0818
     35 H13        -4.8428   -6.2438   -6.5560 H         1 <0>         0.0747
     36 H14        -4.1685   -9.0503   -6.4604 H         1 <0>         0.0718
     37 H15        -3.9858   -8.0539   -7.9687 H         1 <0>         0.0848
     38 H16        -1.6039   -8.1063   -7.3941 H         1 <0>         0.0740
     39 H17        -1.9657   -8.3654   -5.6325 H         1 <0>         0.0823
@<TRIPOS>BOND
     1    1    6 ar
     2    1    2 ar
     3    1   24 1
     4    2    3 ar
     5    2   25 1
     6    3    4 ar
     7    3   26 1
     8    4    9 1
     9    4    5 ar
    10    5    6 ar
    11    5    7 1
    12    6   27 1
    13    7    8 2
    14    7   11 1
    15    8    9 1
    16    8   28 1
    17    9   10 1
    18   11   12 1
    19   11   29 1
    20   11   30 1
    21   12   13 2
    22   12   14 am
    23   14   15 1
    24   14   31 1
    25   15   19 1
    26   15   16 2
    27   16   17 1
    28   17   18 2
    29   17   32 1
    30   18   19 1
    31   18   20 1
    32   20   23 1
    33   20   21 1
    34   20   33 1
    35   21   22 1
    36   21   34 1
    37   21   35 1
    38   22   23 1
    39   22   36 1
    40   22   37 1
    41   23   38 1
    42   23   39 1
@<TRIPOS>MOLECULE
CHEMBL559513
   58    62     0     0     0
SMALL
USER_CHARGES

@<TRIPOS>ATOM
      1 C1         -0.7268    0.8918   -0.2529 C.3       1 <0>         0.0874
      2 N1          0.1380   -0.2841   -0.1270 N.pl3     1 <0>        -0.2384
      3 C2          0.8770   -0.8126   -1.1212 C.2       1 <0>         0.0252
      4 C3          1.5589   -1.8865   -0.5890 C.2       1 <0>        -0.1002
      5 C4          1.1600   -1.9617    0.7457 C.2       1 <0>        -0.0120
      6 N2          0.3109   -0.9666    0.9551 N.2       1 <0>        -0.2435
      7 C5          1.6046   -2.9602    1.7398 C.2       1 <0>         0.6110
      8 O1          2.3957   -3.8259    1.4198 O.2       1 <0>        -0.5278
      9 N3          1.1331   -2.9111    3.0015 N.am      1 <0>        -0.8398
     10 C6          2.5213   -2.7103   -1.3937 C.3       1 <0>        -0.0513
     11 C7          2.0737   -2.7471   -2.8551 C.3       1 <0>        -0.0673
     12 C8          1.6768   -1.3941   -3.3695 C.ar      1 <0>        -0.2050
     13 C9          1.0665   -0.4462   -2.5351 C.ar      1 <0>         0.2930
     14 N4          0.6932    0.7247   -3.0286 N.ar      1 <0>        -0.5541
     15 C10         0.9161    1.0100   -4.3049 C.ar      1 <0>         0.5580
     16 N5          1.5117    0.1467   -5.1149 N.ar      1 <0>        -0.5501
     17 C11         1.8982   -1.0465   -4.6888 C.ar      1 <0>         0.1960
     18 N6          0.5164    2.2395   -4.8028 N.pl3     1 <0>        -0.6424
     19 C12         0.6355    2.5127   -6.1687 C.ar      1 <0>         0.2196
     20 C13         0.3757    1.5168   -7.1026 C.ar      1 <0>        -0.1471
     21 C14         0.4931    1.7858   -8.4524 C.ar      1 <0>        -0.0500
     22 C15         0.8694    3.0451   -8.8788 C.ar      1 <0>        -0.2027
     23 C16         1.1310    4.0453   -7.9504 C.ar      1 <0>         0.2172
     24 C17         1.0075    3.7800   -6.5936 C.ar      1 <0>        -0.2166
     25 N7          1.5118    5.3178   -8.3821 N.pl3     1 <0>        -0.6440
     26 C18         1.9149    6.3542   -7.4191 C.3       1 <0>         0.0998
     27 C19         3.2538    6.9449   -7.8732 C.3       1 <0>        -0.0230
     28 N8          3.1343    7.4181   -9.2581 N.4       1 <0>        -0.3837
     29 C20         2.8790    6.2832  -10.1541 C.3       1 <0>        -0.0234
     30 C21         1.5269    5.6579   -9.8133 C.3       1 <0>         0.0992
     31 C22         4.3824    8.0827   -9.6560 C.3       1 <0>        -0.0472
     32 H1         -0.1532    1.7906   -0.0267 H         1 <0>         0.0910
     33 H2         -1.1112    0.9527   -1.2711 H         1 <0>         0.1026
     34 H3         -1.5595    0.8068    0.4453 H         1 <0>         0.1004
     35 H4          0.5018   -2.2203    3.2568 H         1 <0>         0.4081
     36 H5          1.4250   -3.5667    3.6541 H         1 <0>         0.4098
     37 H6          3.5164   -2.2700   -1.3304 H         1 <0>         0.0838
     38 H7          2.5490   -3.7253   -0.9975 H         1 <0>         0.1055
     39 H8          2.8921   -3.1299   -3.4649 H         1 <0>         0.0915
     40 H9          1.2229   -3.4224   -2.9464 H         1 <0>         0.0850
     41 H10         2.3803   -1.7386   -5.3633 H         1 <0>         0.1794
     42 H11         0.1539    2.9108   -4.2037 H         1 <0>         0.4237
     43 H12         0.0821    0.5312   -6.7726 H         1 <0>         0.1317
     44 H13         0.2907    1.0101   -9.1760 H         1 <0>         0.1313
     45 H14         0.9607    3.2522   -9.9348 H         1 <0>         0.1231
     46 H15         1.2056    4.5570   -5.8700 H         1 <0>         0.1242
     47 H16         1.1596    7.1395   -7.3885 H         1 <0>         0.0876
     48 H17         2.0270    5.9110   -6.4296 H         1 <0>         0.1247
     49 H18         3.5210    7.7800   -7.2256 H         1 <0>         0.1405
     50 H19         4.0270    6.1788   -7.8164 H         1 <0>         0.1323
     51 H20         2.8700    6.6306  -11.1872 H         1 <0>         0.1416
     52 H21         3.6636    5.5371  -10.0282 H         1 <0>         0.1325
     53 H22         1.3826    4.7546  -10.4060 H         1 <0>         0.1286
     54 H23         0.7318    6.3717  -10.0286 H         1 <0>         0.0876
     55 H24         5.2095    7.3765   -9.5828 H         1 <0>         0.1216
     56 H25         4.2950    8.4345  -10.6840 H         1 <0>         0.1254
     57 H26         4.5690    8.9303   -8.9966 H         1 <0>         0.1249
     58 H27         2.3709    8.0748   -9.3232 H         1 <0>         0.4247
@<TRIPOS>BOND
     1    1    2 1
     2    1   32 1
     3    1   33 1
     4    1   34 1
     5    2    6 1
     6    2    3 1
     7    3   13 1
     8    3    4 2
     9    4    5 1
    10    4   10 1
    11    5    6 2
    12    5    7 1
    13    7    8 2
    14    7    9 am
    15    9   35 1
    16    9   36 1
    17   10   11 1
    18   10   37 1
    19   10   38 1
    20   11   12 1
    21   11   39 1
    22   11   40 1
    23   12   17 ar
    24   12   13 ar
    25   13   14 ar
    26   14   15 ar
    27   15   16 ar
    28   15   18 1
    29   16   17 ar
    30   17   41 1
    31   18   19 1
    32   18   42 1
    33   19   24 ar
    34   19   20 ar
    35   20   21 ar
    36   20   43 1
    37   21   22 ar
    38   21   44 1
    39   22   23 ar
    40   22   45 1
    41   23   24 ar
    42   23   25 1
    43   24   46 1
    44   25   30 1
    45   25   26 1
    46   26   27 1
    47   26   47 1
    48   26   48 1
    49   27   28 1
    50   27   49 1
    51   27   50 1
    52   28   29 1
    53   28   31 1
    54   28   58 1
    55   29   30 1
    56   29   51 1
    57   29   52 1
    58   30   53 1
    59   30   54 1
    60   31   55 1
    61   31   56 1
    62   31   57 1
@<TRIPOS>MOLECULE
CHEMBL559513
   57    61     0     0     0
SMALL
USER_CHARGES

@<TRIPOS>ATOM
      1 C1         -0.8281    1.5714   -0.1337 C.3       1 <0>         0.0871
      2 N1         -0.6474    0.1194   -0.0606 N.pl3     1 <0>        -0.2383
      3 C2         -0.3532   -0.6785   -1.1049 C.2       1 <0>         0.0327
      4 C3         -0.2457   -1.9623   -0.6131 C.2       1 <0>        -0.1037
      5 C4         -0.5133   -1.8659    0.7526 C.2       1 <0>        -0.0148
      6 N2         -0.7406   -0.5875    1.0157 N.2       1 <0>        -0.2480
      7 C5         -0.5344   -2.9792    1.7237 C.2       1 <0>         0.6125
      8 O1         -0.3031   -4.1136    1.3530 O.2       1 <0>        -0.5291
      9 N3         -0.8100   -2.7370    3.0206 N.am      1 <0>        -0.8412
     10 C6          0.1128   -3.1320   -1.4825 C.3       1 <0>        -0.0500
     11 C7         -0.4187   -2.9060   -2.8980 C.3       1 <0>        -0.0640
     12 C8         -0.1404   -1.5201   -3.4026 C.ar      1 <0>        -0.2152
     13 C9         -0.1303   -0.4165   -2.5370 C.ar      1 <0>         0.2884
     14 N4          0.0805    0.7988   -3.0193 N.ar      1 <0>        -0.5579
     15 C10         0.3042    0.9702   -4.3156 C.ar      1 <0>         0.5646
     16 N5          0.3251   -0.0531   -5.1573 N.ar      1 <0>        -0.5448
     17 C11         0.1089   -1.2926   -4.7429 C.ar      1 <0>         0.1977
     18 N6          0.5207    2.2496   -4.8011 N.pl3     1 <0>        -0.6387
     19 C12         0.6407    2.4641   -6.1774 C.ar      1 <0>         0.2111
     20 C13        -0.1549    1.7492   -7.0648 C.ar      1 <0>        -0.1668
     21 C14        -0.0369    1.9604   -8.4248 C.ar      1 <0>        -0.0514
     22 C15         0.8722    2.8822   -8.9076 C.ar      1 <0>        -0.2126
     23 C16         1.6710    3.5999   -8.0259 C.ar      1 <0>         0.2403
     24 C17         1.5503    3.3948   -6.6585 C.ar      1 <0>        -0.2273
     25 N7          2.5901    4.5311   -8.5147 N.pl3     1 <0>        -0.6301
     26 C18         2.6416    4.8605   -9.9472 C.3       1 <0>         0.1264
     27 C19         2.5847    6.3844  -10.0986 C.3       1 <0>         0.0384
     28 N8          3.6431    6.9942   -9.2826 N.3       1 <0>        -0.5426
     29 C20         3.4401    6.7184   -7.8541 C.3       1 <0>         0.0386
     30 C21         3.5280    5.2128   -7.6098 C.3       1 <0>         0.1254
     31 C22         3.7337    8.4390   -9.5322 C.3       1 <0>         0.0243
     32 H1          0.1308    2.0652    0.0233 H         1 <0>         0.0915
     33 H2         -1.2186    1.8399   -1.1153 H         1 <0>         0.1041
     34 H3         -1.5310    1.8893    0.6363 H         1 <0>         0.0987
     35 H4         -0.9945   -1.8318    3.3164 H         1 <0>         0.4079
     36 H5         -0.8238   -3.4679    3.6582 H         1 <0>         0.4082
     37 H6          1.1969   -3.2403   -1.5154 H         1 <0>         0.0829
     38 H7         -0.3289   -4.0391   -1.0699 H         1 <0>         0.1027
     39 H8          0.0490   -3.6261   -3.5694 H         1 <0>         0.0894
     40 H9         -1.4959   -3.0724   -2.9008 H         1 <0>         0.0815
     41 H10         0.1276   -2.1146   -5.4431 H         1 <0>         0.1772
     42 H11         0.5889    2.9966   -4.1860 H         1 <0>         0.4216
     43 H12        -0.8660    1.0276   -6.6907 H         1 <0>         0.1241
     44 H13        -0.6564    1.4036   -9.1122 H         1 <0>         0.1240
     45 H14         0.9623    3.0447   -9.9715 H         1 <0>         0.1223
     46 H15         2.1665    3.9548   -5.9707 H         1 <0>         0.1231
     47 H16         3.5703    4.4844  -10.3763 H         1 <0>         0.0705
     48 H17         1.7903    4.4098  -10.4574 H         1 <0>         0.0883
     49 H18         2.7325    6.6517  -11.1449 H         1 <0>         0.0865
     50 H19         1.6128    6.7471   -9.7640 H         1 <0>         0.0386
     51 H20         4.2084    7.2280   -7.2725 H         1 <0>         0.0858
     52 H21         2.4563    7.0765   -7.5507 H         1 <0>         0.0378
     53 H22         3.2624    4.9949   -6.5753 H         1 <0>         0.0852
     54 H23         4.5435    4.8711   -7.8098 H         1 <0>         0.0701
     55 H24         2.7837    8.9112   -9.2820 H         1 <0>         0.0258
     56 H25         4.5248    8.8653   -8.9154 H         1 <0>         0.0702
     57 H26         3.9598    8.6125  -10.5842 H         1 <0>         0.0711
@<TRIPOS>BOND
     1    1    2 1
     2    1   32 1
     3    1   33 1
     4    1   34 1
     5    2    6 1
     6    2    3 1
     7    3   13 1
     8    3    4 2
     9    4    5 1
    10    4   10 1
    11    5    6 2
    12    5    7 1
    13    7    8 2
    14    7    9 am
    15    9   35 1
    16    9   36 1
    17   10   11 1
    18   10   37 1
    19   10   38 1
    20   11   12 1
    21   11   39 1
    22   11   40 1
    23   12   17 ar
    24   12   13 ar
    25   13   14 ar
    26   14   15 ar
    27   15   16 ar
    28   15   18 1
    29   16   17 ar
    30   17   41 1
    31   18   19 1
    32   18   42 1
    33   19   24 ar
    34   19   20 ar
    35   20   21 ar
    36   20   43 1
    37   21   22 ar
    38   21   44 1
    39   22   23 ar
    40   22   45 1
    41   23   24 ar
    42   23   25 1
    43   24   46 1
    44   25   30 1
    45   25   26 1
    46   26   27 1
    47   26   47 1
    48   26   48 1
    49   27   28 1
    50   27   49 1
    51   27   50 1
    52   28   29 1
    53   28   31 1
    54   29   30 1
    55   29   51 1
    56   29   52 1
    57   30   53 1
    58   30   54 1
    59   31   55 1
    60   31   56 1
    61   31   57 1
@<TRIPOS>MOLECULE
CHEMBL140272
   41    44     0     0     0
SMALL
USER_CHARGES

@<TRIPOS>ATOM
      1 C1          0.0814    1.2312    2.0767 C.ar      1 <0>        -0.1369
      2 C2          0.2651   -0.0950    2.4227 C.ar      1 <0>        -0.0998
      3 C3          1.4468   -0.7357    2.1058 C.ar      1 <0>        -0.1191
      4 C4          2.4514   -0.0464    1.4387 C.ar      1 <0>         0.1566
      5 C5          2.2637    1.2856    1.0926 C.ar      1 <0>        -0.1488
      6 C6          1.0796    1.9203    1.4125 C.ar      1 <0>        -0.0981
      7 N1          3.6491   -0.6918    1.1168 N.pl3     1 <0>        -0.6256
      8 C7          3.6657   -2.0593    0.9200 C.ar      1 <0>         0.6043
      9 N2          2.5131   -2.7205    0.9294 N.ar      1 <0>        -0.5688
     10 C8          2.4729   -4.0279    0.7463 C.ar      1 <0>         0.2564
     11 C9          3.6782   -4.7092    0.5404 C.ar      1 <0>        -0.2859
     12 C10         3.7245   -6.1528    0.3295 C.2       1 <0>         0.0084
     13 C11         4.9360   -6.7370    0.1365 C.2       1 <0>        -0.2295
     14 C12         6.1089   -5.9552    0.1430 C.2       1 <0>         0.5363
     15 O1          7.1851   -6.4998   -0.0317 O.2       1 <0>        -0.5023
     16 N3          6.0729   -4.6247    0.3363 N.am      1 <0>        -0.4993
     17 C13         4.8833   -3.9734    0.5369 C.ar      1 <0>         0.4628
     18 N4          4.8294   -2.6607    0.7238 N.ar      1 <0>        -0.5956
     19 C14         7.3229   -3.8607    0.3334 C.3       1 <0>         0.1243
     20 C15         8.1903   -4.2619    1.5444 C.3       1 <0>        -0.1276
     21 C16         9.1586   -5.3312    0.9804 C.3       1 <0>        -0.1335
     22 C17         9.4796   -4.7892   -0.4346 C.3       1 <0>        -0.1096
     23 C18         8.1427   -4.1960   -0.9249 C.3       1 <0>        -0.1237
     24 H1         -0.8454    1.7286    2.3218 H         1 <0>         0.1231
     25 H2         -0.5163   -0.6303    2.9417 H         1 <0>         0.1256
     26 H3          1.5897   -1.7713    2.3766 H         1 <0>         0.1449
     27 H4          3.0430    1.8245    0.5742 H         1 <0>         0.1245
     28 H5          0.9330    2.9560    1.1437 H         1 <0>         0.1265
     29 H6          4.4683   -0.1796    1.0315 H         1 <0>         0.4257
     30 H7          1.5324   -4.5587    0.7556 H         1 <0>         0.1867
     31 H8          2.8191   -6.7416    0.3273 H         1 <0>         0.1518
     32 H9          5.0005   -7.8034   -0.0220 H         1 <0>         0.1590
     33 H10         7.1074   -2.7927    0.3650 H         1 <0>         0.1139
     34 H11         8.7468   -3.4018    1.9167 H         1 <0>         0.0780
     35 H12         7.5703   -4.6870    2.3336 H         1 <0>         0.0637
     36 H13        10.0632   -5.3908    1.5856 H         1 <0>         0.0568
     37 H14         8.6683   -6.3028    0.9198 H         1 <0>         0.1057
     38 H15        10.2443   -4.0143   -0.3819 H         1 <0>         0.0602
     39 H16         9.8006   -5.5992   -1.0896 H         1 <0>         0.0675
     40 H17         7.6105   -4.9272   -1.5334 H         1 <0>         0.0737
     41 H18         8.3258   -3.2906   -1.5035 H         1 <0>         0.0678
@<TRIPOS>BOND
     1    1    6 ar
     2    1    2 ar
     3    1   24 1
     4    2    3 ar
     5    2   25 1
     6    3    4 ar
     7    3   26 1
     8    4    5 ar
     9    4    7 1
    10    5    6 ar
    11    5   27 1
    12    6   28 1
    13    7    8 1
    14    7   29 1
    15    8   18 ar
    16    8    9 ar
    17    9   10 ar
    18   10   11 ar
    19   10   30 1
    20   11   17 ar
    21   11   12 1
    22   12   13 2
    23   12   31 1
    24   13   14 1
    25   13   32 1
    26   14   15 2
    27   14   16 am
    28   16   17 1
    29   16   19 1
    30   17   18 ar
    31   19   23 1
    32   19   20 1
    33   19   33 1
    34   20   21 1
    35   20   34 1
    36   20   35 1
    37   21   22 1
    38   21   36 1
    39   21   37 1
    40   22   23 1
    41   22   38 1
    42   22   39 1
    43   23   40 1
    44   23   41 1
@<TRIPOS>MOLECULE
CHEMBL210618
   46    47     0     0     0
SMALL
USER_CHARGES

@<TRIPOS>ATOM
      1 C1          2.8824   -6.4072    4.7168 C.3       1 <0>        -0.1552
      2 C2          2.1528   -5.8740    3.4821 C.3       1 <0>         0.0698
      3 O1          2.1422   -4.4455    3.5150 O.3       1 <0>        -0.2974
      4 C3          1.5303   -3.8111    2.4862 C.ar      1 <0>         0.4422
      5 C4          1.4912   -2.4091    2.4579 C.ar      1 <0>        -0.2167
      6 C5          0.8492   -1.7688    1.3776 C.ar      1 <0>         0.3538
      7 C6          0.2819   -2.5616    0.3859 C.ar      1 <0>        -0.3271
      8 C7          0.3649   -3.9424    0.4899 C.ar      1 <0>         0.4673
      9 N1          0.9799   -4.5179    1.5150 N.ar      1 <0>        -0.5640
     10 N2         -0.2018   -4.7376   -0.5010 N.am      1 <0>        -0.6596
     11 C8         -0.0402   -6.0752   -0.4661 C.2       1 <0>         0.5088
     12 O2          0.5194   -6.5939    0.4765 O.2       1 <0>        -0.4507
     13 C9         -0.5549   -6.9261   -1.5983 C.3       1 <0>        -0.0901
     14 C10        -0.2496   -8.3748   -1.3169 C.ar      1 <0>        -0.0653
     15 C11         0.8944   -8.9525   -1.8328 C.ar      1 <0>        -0.0983
     16 C12         1.1756  -10.2855   -1.5735 C.ar      1 <0>         0.0937
     17 C13         0.3082  -11.0388   -0.7960 C.ar      1 <0>        -0.1638
     18 C14        -0.8354  -10.4613   -0.2803 C.ar      1 <0>        -0.1672
     19 C15        -1.1140   -9.1265   -0.5354 C.ar      1 <0>         0.1111
     20 O3         -2.2372   -8.5563   -0.0229 O.3       1 <0>        -0.3149
     21 C16        -3.0823   -9.3894    0.7732 C.3       1 <0>         0.0284
     22 O4          2.3014  -10.8542   -2.0817 O.3       1 <0>        -0.3174
     23 C17         2.5280  -12.2313   -1.7744 C.3       1 <0>         0.0276
     24 N3          0.7849   -0.3856    1.3065 N.pl3     1 <0>        -0.8432
     25 C18         2.0920   -1.6418    3.5072 C.1       1 <0>         0.2733
     26 N4          2.5686   -1.0332    4.3395 N.1       1 <0>        -0.4293
     27 H1          2.3690   -6.0683    5.6167 H         1 <0>         0.0639
     28 H2          2.8905   -7.4969    4.6917 H         1 <0>         0.0806
     29 H3          3.9073   -6.0362    4.7217 H         1 <0>         0.0643
     30 H4          2.6662   -6.2129    2.5823 H         1 <0>         0.0746
     31 H5          1.1279   -6.2450    3.4773 H         1 <0>         0.0734
     32 H6         -0.2184   -2.1070   -0.4564 H         1 <0>         0.1464
     33 H7         -0.7132   -4.3294   -1.2170 H         1 <0>         0.4216
     34 H8         -1.6327   -6.7935   -1.6917 H         1 <0>         0.1130
     35 H9         -0.0701   -6.6265   -2.5275 H         1 <0>         0.1091
     36 H10         1.5696   -8.3661   -2.4384 H         1 <0>         0.1371
     37 H11         0.5270  -12.0770   -0.5944 H         1 <0>         0.1309
     38 H12        -1.5111  -11.0479    0.3244 H         1 <0>         0.1316
     39 H13        -3.4285  -10.2326    0.1754 H         1 <0>         0.0547
     40 H14        -2.5230   -9.7587    1.6327 H         1 <0>         0.0549
     41 H15        -3.9401   -8.8124    1.1185 H         1 <0>         0.0997
     42 H16         3.4575  -12.5592   -2.2399 H         1 <0>         0.1005
     43 H17         2.5992  -12.3555   -0.6939 H         1 <0>         0.0547
     44 H18         1.7002  -12.8295   -2.1552 H         1 <0>         0.0545
     45 H19         1.1847    0.1551    2.0056 H         1 <0>         0.4070
     46 H20         0.3401    0.0415    0.5577 H         1 <0>         0.4117
@<TRIPOS>BOND
     1    1    2 1
     2    1   27 1
     3    1   28 1
     4    1   29 1
     5    2    3 1
     6    2   30 1
     7    2   31 1
     8    3    4 1
     9    4    9 ar
    10    4    5 ar
    11    5    6 ar
    12    5   25 1
    13    6    7 ar
    14    6   24 1
    15    7    8 ar
    16    7   32 1
    17    8    9 ar
    18    8   10 1
    19   10   11 am
    20   10   33 1
    21   11   12 2
    22   11   13 1
    23   13   14 1
    24   13   34 1
    25   13   35 1
    26   14   19 ar
    27   14   15 ar
    28   15   16 ar
    29   15   36 1
    30   16   17 ar
    31   16   22 1
    32   17   18 ar
    33   17   37 1
    34   18   19 ar
    35   18   38 1
    36   19   20 1
    37   20   21 1
    38   21   39 1
    39   21   40 1
    40   21   41 1
    41   22   23 1
    42   23   42 1
    43   23   43 1
    44   23   44 1
    45   24   45 1
    46   24   46 1
    47   25   26 3
@<TRIPOS>MOLECULE
CHEMBL195641
   46    49     0     0     0
SMALL
USER_CHARGES

@<TRIPOS>ATOM
      1 C1          0.0274    1.0240    0.7546 C.ar      1 <0>        -0.1159
      2 C2          1.2041    1.6934    0.9317 C.ar      1 <0>        -0.0434
      3 C3          2.3429    1.3041    0.2215 C.ar      1 <0>         0.0357
      4 C4          2.2670    0.2223   -0.6727 C.ar      1 <0>         0.0665
      5 C5          1.0657   -0.4500   -0.8446 C.ar      1 <0>        -0.1418
      6 C6         -0.0518   -0.0490   -0.1310 C.ar      1 <0>         0.1730
      7 N1         -1.2656   -0.7240   -0.3005 N.pl3     1 <0>        -0.6379
      8 C7         -2.4631   -0.0348   -0.1903 C.ar      1 <0>         0.5202
      9 C8         -3.6811   -0.7165   -0.2487 C.ar      1 <0>        -0.4018
     10 C9         -4.8493    0.0111   -0.1344 C.ar      1 <0>         0.2753
     11 N2         -4.7819    1.3247    0.0260 N.ar      1 <0>        -0.5785
     12 C10        -3.6126    1.9454    0.0779 C.ar      1 <0>         0.6183
     13 N3         -2.4694    1.2836   -0.0222 N.ar      1 <0>        -0.5962
     14 N4         -3.5846    3.3197    0.2466 N.pl3     1 <0>        -0.6241
     15 C11        -4.7750    4.0219    0.4711 C.ar      1 <0>         0.1761
     16 C12        -5.8061    3.4284    1.1882 C.ar      1 <0>        -0.0935
     17 C13        -6.9819    4.1186    1.4120 C.ar      1 <0>        -0.1048
     18 C14        -7.1359    5.4065    0.9210 C.ar      1 <0>         0.1338
     19 C15        -6.1027    6.0051    0.2006 C.ar      1 <0>         0.1696
     20 C16        -4.9217    5.3125   -0.0181 C.ar      1 <0>        -0.1547
     21 N5         -6.2557    7.3054   -0.2962 N.pl3     1 <0>        -0.6094
     22 C17        -5.2509    7.8858   -0.9959 C.1       1 <0>         0.4104
     23 N6         -4.4086    8.3725   -1.5826 N.1       1 <0>        -0.4052
     24 N7         -8.3301    6.1061    1.1483 N.pl3     1 <0>        -0.6112
     25 C18        -9.3338    5.5237    1.8479 C.1       1 <0>         0.4116
     26 N8        -10.1753    5.0355    2.4344 N.1       1 <0>        -0.4073
     27 C19        -3.7193   -2.2117   -0.4326 C.3       1 <0>         0.5278
     28 F1         -5.0494   -2.6446   -0.4578 F         1 <0>        -0.1699
     29 F2         -3.0961   -2.5493   -1.6388 F         1 <0>        -0.1783
     30 F3         -3.0479   -2.8294    0.6280 F         1 <0>        -0.1759
     31 N9          3.5307    0.0837   -1.2114 N.pl3     1 <0>        -0.6029
     32 C20         4.3160    1.0465   -0.6545 C.2       1 <0>         0.2624
     33 N10         3.6223    1.7600    0.1830 N.2       1 <0>        -0.4921
     34 H1         -0.8488    1.3259    1.3092 H         1 <0>         0.1440
     35 H2          1.2547    2.5239    1.6203 H         1 <0>         0.1351
     36 H3          1.0023   -1.2816   -1.5308 H         1 <0>         0.1273
     37 H4         -1.2690   -1.6743   -0.4952 H         1 <0>         0.4231
     38 H5         -5.8076   -0.4852   -0.1757 H         1 <0>         0.1867
     39 H6         -2.7404    3.7959    0.2093 H         1 <0>         0.4295
     40 H7         -5.6885    2.4255    1.5713 H         1 <0>         0.1478
     41 H8         -7.7820    3.6546    1.9696 H         1 <0>         0.1376
     42 H9         -4.1183    5.7752   -0.5721 H         1 <0>         0.1366
     43 H10        -7.0809    7.7905   -0.1394 H         1 <0>         0.4279
     44 H11        -8.4374    7.0068    0.8047 H         1 <0>         0.4256
     45 H12         5.3626    1.1956   -0.8754 H         1 <0>         0.2180
     46 H13         3.8077   -0.5773   -1.8651 H         1 <0>         0.4249
@<TRIPOS>BOND
     1    1    6 ar
     2    1    2 ar
     3    1   34 1
     4    2    3 ar
     5    2   35 1
     6    3   33 1
     7    3    4 ar
     8    4    5 ar
     9    4   31 1
    10    5    6 ar
    11    5   36 1
    12    6    7 1
    13    7    8 1
    14    7   37 1
    15    8   13 ar
    16    8    9 ar
    17    9   10 ar
    18    9   27 1
    19   10   11 ar
    20   10   38 1
    21   11   12 ar
    22   12   13 ar
    23   12   14 1
    24   14   15 1
    25   14   39 1
    26   15   20 ar
    27   15   16 ar
    28   16   17 ar
    29   16   40 1
    30   17   18 ar
    31   17   41 1
    32   18   19 ar
    33   18   24 1
    34   19   20 ar
    35   19   21 1
    36   20   42 1
    37   21   22 1
    38   21   43 1
    39   22   23 3
    40   24   25 1
    41   24   44 1
    42   25   26 3
    43   27   28 1
    44   27   29 1
    45   27   30 1
    46   31   32 1
    47   31   46 1
    48   32   33 2
    49   32   45 1
@<TRIPOS>MOLECULE
CHEMBL195641
   46    49     0     0     0
SMALL
USER_CHARGES

@<TRIPOS>ATOM
      1 C1          1.0711   -0.4527   -0.8498 C.ar      1 <0>        -0.1172
      2 C2          2.2726    0.2032   -0.6933 C.ar      1 <0>        -0.0897
      3 C3          2.3681    1.2730    0.1858 C.ar      1 <0>         0.0345
      4 C4          1.2409    1.6870    0.9156 C.ar      1 <0>         0.0652
      5 C5          0.0275    1.0149    0.7494 C.ar      1 <0>        -0.0560
      6 C6         -0.0516   -0.0488   -0.1300 C.ar      1 <0>         0.1354
      7 N1         -1.2666   -0.7237   -0.2987 N.pl3     1 <0>        -0.6365
      8 C7         -2.4637   -0.0338   -0.1882 C.ar      1 <0>         0.5186
      9 C8         -3.6821   -0.7149   -0.2455 C.ar      1 <0>        -0.4029
     10 C9         -4.8499    0.0134   -0.1310 C.ar      1 <0>         0.2745
     11 N2         -4.7817    1.3271    0.0288 N.ar      1 <0>        -0.5797
     12 C10        -3.6120    1.9471    0.0797 C.ar      1 <0>         0.6189
     13 N3         -2.4692    1.2847   -0.0206 N.ar      1 <0>        -0.5972
     14 N4         -3.5832    3.3216    0.2473 N.pl3     1 <0>        -0.6242
     15 C11        -4.7732    4.0246    0.4718 C.ar      1 <0>         0.1779
     16 C12        -5.8045    3.4320    1.1892 C.ar      1 <0>        -0.0935
     17 C13        -6.9798    4.1230    1.4129 C.ar      1 <0>        -0.1045
     18 C14        -7.1331    5.4108    0.9214 C.ar      1 <0>         0.1329
     19 C15        -6.0996    6.0086    0.2007 C.ar      1 <0>         0.1693
     20 C16        -4.9191    5.3151   -0.0179 C.ar      1 <0>        -0.1551
     21 N5         -6.2519    7.3087   -0.2966 N.pl3     1 <0>        -0.6093
     22 C17        -5.2469    7.8883   -0.9967 C.1       1 <0>         0.4109
     23 N6         -4.4043    8.3742   -1.5836 N.1       1 <0>        -0.4063
     24 N7         -8.3268    6.1113    1.1487 N.pl3     1 <0>        -0.6112
     25 C18        -9.3308    5.5298    1.8486 C.1       1 <0>         0.4118
     26 N8        -10.1725    5.0423    2.4354 N.1       1 <0>        -0.4079
     27 C19        -3.7212   -2.2102   -0.4287 C.3       1 <0>         0.5282
     28 F1         -5.0516   -2.6424   -0.4530 F         1 <0>        -0.1705
     29 F2         -3.0989   -2.5487   -1.6350 F         1 <0>        -0.1780
     30 F3         -3.0496   -2.8277    0.6319 F         1 <0>        -0.1761
     31 N9          1.6296    2.7387    1.6818 N.2       1 <0>        -0.4953
     32 C20         2.8894    2.9897    1.4743 C.2       1 <0>         0.2682
     33 N10         3.3960    2.1178    0.5618 N.pl3     1 <0>        -0.6024
     34 H1          4.3092    2.0929    0.2356 H         1 <0>         0.4250
     35 H2          0.9979   -1.2821   -1.5377 H         1 <0>         0.1355
     36 H3          3.1392   -0.1149   -1.2537 H         1 <0>         0.1301
     37 H4         -0.8449    1.3253    1.3051 H         1 <0>         0.1447
     38 H5         -1.2707   -1.6741   -0.4929 H         1 <0>         0.4237
     39 H6         -5.8085   -0.4824   -0.1715 H         1 <0>         0.1861
     40 H7         -2.7387    3.7972    0.2092 H         1 <0>         0.4295
     41 H8         -5.6875    2.4292    1.5726 H         1 <0>         0.1480
     42 H9         -7.7801    3.6597    1.9708 H         1 <0>         0.1375
     43 H10        -4.1155    5.7771   -0.5722 H         1 <0>         0.1361
     44 H11        -7.0767    7.7944   -0.1399 H         1 <0>         0.4278
     45 H12        -8.4336    7.0119    0.8048 H         1 <0>         0.4254
     46 H13         3.4509    3.7763    1.9563 H         1 <0>         0.2178
@<TRIPOS>BOND
     1    1    6 ar
     2    1    2 ar
     3    1   35 1
     4    2    3 ar
     5    2   36 1
     6    3   33 1
     7    3    4 ar
     8    4    5 ar
     9    4   31 1
    10    5    6 ar
    11    5   37 1
    12    6    7 1
    13    7    8 1
    14    7   38 1
    15    8   13 ar
    16    8    9 ar
    17    9   10 ar
    18    9   27 1
    19   10   11 ar
    20   10   39 1
    21   11   12 ar
    22   12   13 ar
    23   12   14 1
    24   14   15 1
    25   14   40 1
    26   15   20 ar
    27   15   16 ar
    28   16   17 ar
    29   16   41 1
    30   17   18 ar
    31   17   42 1
    32   18   19 ar
    33   18   24 1
    34   19   20 ar
    35   19   21 1
    36   20   43 1
    37   21   22 1
    38   21   44 1
    39   22   23 3
    40   24   25 1
    41   24   45 1
    42   25   26 3
    43   27   28 1
    44   27   29 1
    45   27   30 1
    46   31   32 2
    47   32   33 1
    48   32   46 1
    49   33   34 1
@<TRIPOS>MOLECULE
CHEMBL468963
   55    59     0     0     0
SMALL
USER_CHARGES

@<TRIPOS>ATOM
      1 C1          0.2093    1.4361    0.0867 C.3       1 <0>        -0.0463
      2 N1          0.0940   -0.0268    0.0182 N.4       1 <0>        -0.3798
      3 C2         -1.3155   -0.4122    0.1630 C.3       1 <0>        -0.0408
      4 C3         -1.4513   -1.9271   -0.0225 C.3       1 <0>         0.1207
      5 N2         -0.5393   -2.5958    0.9183 N.pl3     1 <0>        -0.6821
      6 C4          0.8638   -2.1553    0.9551 C.3       1 <0>         0.1206
      7 C5          0.8904   -0.6296    1.0945 C.3       1 <0>        -0.0406
      8 C6         -0.9935   -3.6223    1.7542 C.ar      1 <0>         0.1749
      9 C7         -0.9365   -4.9426    1.3266 C.ar      1 <0>        -0.0923
     10 C8         -1.3846   -5.9551    2.1512 C.ar      1 <0>        -0.0740
     11 C9         -1.8923   -5.6535    3.4082 C.ar      1 <0>         0.1898
     12 C10        -1.9496   -4.3337    3.8355 C.ar      1 <0>        -0.1016
     13 C11        -1.4957   -3.3214    3.0132 C.ar      1 <0>        -0.1666
     14 C12        -1.5514   -1.8895    3.4798 C.3       1 <0>         0.5187
     15 F1         -2.0914   -1.8399    4.7694 F         1 <0>        -0.1682
     16 F2         -0.2593   -1.3532    3.4944 F         1 <0>        -0.1783
     17 F3         -2.3550   -1.1461    2.6088 F         1 <0>        -0.1787
     18 N3         -2.3469   -6.6810    4.2450 N.pl3     1 <0>        -0.6413
     19 C13        -1.7291   -7.9203    4.2183 C.ar      1 <0>         0.5631
     20 N4         -0.6388   -8.0824    3.4821 N.ar      1 <0>        -0.5717
     21 C14        -0.0178   -9.2514    3.4297 C.ar      1 <0>         0.1949
     22 C15        -0.5170  -10.3158    4.1550 C.ar      1 <0>        -0.2658
     23 C16        -1.6704  -10.1164    4.9242 C.ar      1 <0>         0.3181
     24 N5         -2.2396   -8.9106    4.9328 N.ar      1 <0>        -0.5676
     25 C17        -2.2439  -11.2227    5.7176 C.2       1 <0>        -0.2075
     26 C18        -1.7455  -12.5260    5.8078 C.2       1 <0>         0.1018
     27 N6         -2.5210  -13.2230    6.6055 N.2       1 <0>        -0.2464
     28 N7         -3.5590  -12.4091    7.0718 N.pl3     1 <0>        -0.1731
     29 C19        -3.3885  -11.1623    6.5277 C.2       1 <0>         0.1022
     30 C20        -4.2959  -10.1414    6.8379 C.2       1 <0>        -0.0313
     31 C21        -5.3339  -10.4101    7.6825 C.2       1 <0>        -0.1509
     32 C22        -5.4801  -11.6903    8.2250 C.2       1 <0>         0.1193
     33 N8         -4.6389  -12.6475    7.9300 N.2       1 <0>        -0.2087
     34 H1          1.2542    1.7240   -0.0287 H         1 <0>         0.1243
     35 H2         -0.3815    1.8849   -0.7118 H         1 <0>         0.1243
     36 H3         -0.1593    1.7848    1.0514 H         1 <0>         0.1196
     37 H4         -1.6680   -0.1347    1.1564 H         1 <0>         0.1393
     38 H5         -1.9120    0.1013   -0.5910 H         1 <0>         0.1379
     39 H6         -2.4776   -2.2308    0.1838 H         1 <0>         0.1172
     40 H7         -1.1851   -2.1962   -1.0447 H         1 <0>         0.0833
     41 H8          1.3681   -2.6098    1.8079 H         1 <0>         0.1176
     42 H9          1.3638   -2.4475    0.0317 H         1 <0>         0.0835
     43 H10         1.9193   -0.2763    1.0269 H         1 <0>         0.1380
     44 H11         0.4712   -0.3455    2.0597 H         1 <0>         0.1392
     45 H12        -0.5421   -5.1770    0.3489 H         1 <0>         0.1405
     46 H13        -1.3407   -6.9816    1.8186 H         1 <0>         0.1508
     47 H14        -2.3448   -4.0993    4.8129 H         1 <0>         0.1455
     48 H15        -3.0945   -6.5245    4.8430 H         1 <0>         0.4272
     49 H16         0.8697   -9.3711    2.8259 H         1 <0>         0.1751
     50 H17        -0.0297  -11.2793    4.1291 H         1 <0>         0.1516
     51 H18        -0.8663  -12.8985    5.3033 H         1 <0>         0.2100
     52 H19        -4.1757   -9.1550    6.4149 H         1 <0>         0.1688
     53 H20        -6.0420   -9.6338    7.9319 H         1 <0>         0.1622
     54 H21        -6.3044  -11.8939    8.8924 H         1 <0>         0.2113
     55 H22         0.4382   -0.3487   -0.8739 H         1 <0>         0.4221
@<TRIPOS>BOND
     1    1    2 1
     2    1   34 1
     3    1   35 1
     4    1   36 1
     5    2    7 1
     6    2    3 1
     7    2   55 1
     8    3    4 1
     9    3   37 1
    10    3   38 1
    11    4    5 1
    12    4   39 1
    13    4   40 1
    14    5    6 1
    15    5    8 1
    16    6    7 1
    17    6   41 1
    18    6   42 1
    19    7   43 1
    20    7   44 1
    21    8   13 ar
    22    8    9 ar
    23    9   10 ar
    24    9   45 1
    25   10   11 ar
    26   10   46 1
    27   11   12 ar
    28   11   18 1
    29   12   13 ar
    30   12   47 1
    31   13   14 1
    32   14   15 1
    33   14   16 1
    34   14   17 1
    35   18   19 1
    36   18   48 1
    37   19   24 ar
    38   19   20 ar
    39   20   21 ar
    40   21   22 ar
    41   21   49 1
    42   22   23 ar
    43   22   50 1
    44   23   24 ar
    45   23   25 1
    46   25   29 2
    47   25   26 1
    48   26   27 2
    49   26   51 1
    50   27   28 1
    51   28   33 1
    52   28   29 1
    53   29   30 1
    54   30   31 2
    55   30   52 1
    56   31   32 1
    57   31   53 1
    58   32   33 2
    59   32   54 1
@<TRIPOS>MOLECULE
CHEMBL468963
   54    58     0     0     0
SMALL
USER_CHARGES

@<TRIPOS>ATOM
      1 C1          0.2062    1.4379    0.0926 C.3       1 <0>         0.0258
      2 N1          0.0993   -0.0255    0.0234 N.3       1 <0>        -0.5400
      3 C2         -1.3047   -0.4540    0.0781 C.3       1 <0>         0.0227
      4 C3         -1.3852   -1.9627   -0.1780 C.3       1 <0>         0.1522
      5 N2         -0.4893   -2.6456    0.7676 N.pl3     1 <0>        -0.6855
      6 C4          0.9020   -2.1793    0.8686 C.3       1 <0>         0.1521
      7 C5          0.8924   -0.6621    1.0834 C.3       1 <0>         0.0229
      8 C6         -0.9483   -3.7111    1.5503 C.ar      1 <0>         0.2081
      9 C7         -0.8487   -5.0134    1.0776 C.ar      1 <0>        -0.1042
     10 C8         -1.3015   -6.0645    1.8497 C.ar      1 <0>        -0.0741
     11 C9         -1.8566   -5.8197    3.0991 C.ar      1 <0>         0.1648
     12 C10        -1.9566   -4.5180    3.5714 C.ar      1 <0>        -0.1003
     13 C11        -1.4980   -3.4670    2.8018 C.ar      1 <0>        -0.1739
     14 C12        -1.6000   -2.0547    3.3175 C.3       1 <0>         0.5151
     15 F1         -2.1830   -2.0635    4.5892 F         1 <0>        -0.1819
     16 F2         -0.3210   -1.4930    3.3948 F         1 <0>        -0.1694
     17 F3         -2.3906   -1.2964    2.4473 F         1 <0>        -0.1698
     18 N3         -2.3162   -6.8864    3.8825 N.pl3     1 <0>        -0.6391
     19 C13        -1.6711   -8.1109    3.8320 C.ar      1 <0>         0.5683
     20 N4         -0.5539   -8.2235    3.1275 N.ar      1 <0>        -0.5660
     21 C14         0.0938   -9.3768    3.0540 C.ar      1 <0>         0.1964
     22 C15        -0.4059  -10.4772    3.7232 C.ar      1 <0>        -0.2728
     23 C16        -1.5879  -10.3298    4.4599 C.ar      1 <0>         0.3120
     24 N5         -2.1831   -9.1370    4.4928 N.ar      1 <0>        -0.5714
     25 C17        -2.1631  -11.4760    5.1932 C.2       1 <0>        -0.1989
     26 C18        -1.6397  -12.7712    5.2532 C.2       1 <0>         0.0993
     27 N6         -2.4257  -13.5128    5.9987 N.2       1 <0>        -0.2496
     28 N7         -3.4958  -12.7379    6.4589 N.pl3     1 <0>        -0.1747
     29 C19        -3.3346  -11.4688    5.9661 C.2       1 <0>         0.0988
     30 C20        -4.2737  -10.4788    6.2822 C.2       1 <0>        -0.0262
     31 C21        -5.3327  -10.7995    7.0812 C.2       1 <0>        -0.1566
     32 C22        -5.4689  -12.1015    7.5720 C.2       1 <0>         0.1194
     33 N8         -4.5979  -13.0298    7.2712 N.2       1 <0>        -0.2129
     34 H1          1.2489    1.7321   -0.0266 H         1 <0>         0.0680
     35 H2         -0.3904    1.8839   -0.7032 H         1 <0>         0.0676
     36 H3         -0.1607    1.7837    1.0590 H         1 <0>         0.0230
     37 H4         -1.7153   -0.2298    1.0626 H         1 <0>         0.0545
     38 H5         -1.8765    0.0753   -0.6841 H         1 <0>         0.0780
     39 H6         -2.4086   -2.3059   -0.0257 H         1 <0>         0.0724
     40 H7         -1.0721   -2.1779   -1.1996 H         1 <0>         0.0612
     41 H8          1.3908   -2.6656    1.7127 H         1 <0>         0.0728
     42 H9          1.4350   -2.4153   -0.0525 H         1 <0>         0.0612
     43 H10         1.9141   -0.2836    1.0504 H         1 <0>         0.0780
     44 H11         0.4513   -0.4349    2.0539 H         1 <0>         0.0544
     45 H12        -0.4174   -5.2037    0.1060 H         1 <0>         0.1382
     46 H13        -1.2245   -7.0770    1.4821 H         1 <0>         0.1443
     47 H14        -2.3886   -4.3277    4.5428 H         1 <0>         0.1394
     48 H15        -3.0861   -6.7673    4.4603 H         1 <0>         0.4240
     49 H16         1.0029   -9.4560    2.4764 H         1 <0>         0.1736
     50 H17         0.1028  -11.4288    3.6791 H         1 <0>         0.1484
     51 H18        -0.7365  -13.1069    4.7654 H         1 <0>         0.2096
     52 H19        -4.1610   -9.4752    5.8992 H         1 <0>         0.1701
     53 H20        -6.0653  -10.0475    7.3345 H         1 <0>         0.1613
     54 H21        -6.3101  -12.3463    8.2036 H         1 <0>         0.2094
@<TRIPOS>BOND
     1    1    2 1
     2    1   34 1
     3    1   35 1
     4    1   36 1
     5    2    7 1
     6    2    3 1
     7    3    4 1
     8    3   37 1
     9    3   38 1
    10    4    5 1
    11    4   39 1
    12    4   40 1
    13    5    6 1
    14    5    8 1
    15    6    7 1
    16    6   41 1
    17    6   42 1
    18    7   43 1
    19    7   44 1
    20    8   13 ar
    21    8    9 ar
    22    9   10 ar
    23    9   45 1
    24   10   11 ar
    25   10   46 1
    26   11   12 ar
    27   11   18 1
    28   12   13 ar
    29   12   47 1
    30   13   14 1
    31   14   15 1
    32   14   16 1
    33   14   17 1
    34   18   19 1
    35   18   48 1
    36   19   24 ar
    37   19   20 ar
    38   20   21 ar
    39   21   22 ar
    40   21   49 1
    41   22   23 ar
    42   22   50 1
    43   23   24 ar
    44   23   25 1
    45   25   29 2
    46   25   26 1
    47   26   27 2
    48   26   51 1
    49   27   28 1
    50   28   33 1
    51   28   29 1
    52   29   30 1
    53   30   31 2
    54   30   52 1
    55   31   32 1
    56   31   53 1
    57   32   33 2
    58   32   54 1
@<TRIPOS>MOLECULE
CHEMBL187353
   35    38     0     0     0
SMALL
USER_CHARGES

@<TRIPOS>ATOM
      1 C1         -0.4619    1.6522   -0.0174 C.3       1 <0>        -0.1628
      2 S1         -0.1613   -0.1367   -0.0053 S.3       1 <0>         0.0340
      3 C2          0.7275   -0.4297   -1.4982 C.2       1 <0>         0.1433
      4 C3          1.2110   -1.7192   -1.9766 C.2       1 <0>        -0.3241
      5 C4          1.8582   -1.4760   -3.1985 C.2       1 <0>         0.3843
      6 N1          2.4051   -2.5060   -3.8654 N.2       1 <0>        -0.5274
      7 C5          2.3454   -3.7210   -3.3998 C.2       1 <0>         0.4768
      8 N2          1.7337   -4.0211   -2.2251 N.am      1 <0>        -0.6406
      9 C6          1.1567   -3.0459   -1.4869 C.2       1 <0>         0.5773
     10 O1          0.6055   -3.3022   -0.4308 O.2       1 <0>        -0.5068
     11 C7          2.9779   -4.8347   -4.1940 C.3       1 <0>        -0.1443
     12 C8          4.3559   -4.5723   -4.8049 C.3       1 <0>        -0.1377
     13 C9          3.1195   -4.6332   -5.7041 C.3       1 <0>        -0.1373
     14 N3          1.7689   -0.1401   -3.4343 N.pl3     1 <0>        -0.3154
     15 N4          1.0714    0.4710   -2.3871 N.2       1 <0>        -0.2547
     16 C10         2.2898    0.5209   -4.5542 C.ar      1 <0>         0.1672
     17 C11         1.9334    0.1103   -5.8331 C.ar      1 <0>        -0.0042
     18 C12         2.4491    0.7644   -6.9361 C.ar      1 <0>        -0.0863
     19 C13         3.3198    1.8268   -6.7679 C.ar      1 <0>        -0.0064
     20 C14         3.6769    2.2377   -5.4956 C.ar      1 <0>        -0.0886
     21 C15         3.1594    1.5919   -4.3885 C.ar      1 <0>        -0.0036
     22 Cl1         3.6020    2.1131   -2.7928 Cl        1 <0>        -0.0164
     23 Cl2         3.9658    2.6455   -8.1558 Cl        1 <0>        -0.0293
     24 Cl3         0.8422   -1.2230   -6.0452 Cl        1 <0>        -0.0162
     25 H1          0.4912    2.1807   -0.0384 H         1 <0>         0.0880
     26 H2         -1.0436    1.9169   -0.9004 H         1 <0>         0.0885
     27 H3         -1.0139    1.9340    0.8793 H         1 <0>         0.1146
     28 H4          2.7685   -5.8435   -3.8383 H         1 <0>         0.1387
     29 H5          4.8050   -3.5942   -4.6323 H         1 <0>         0.1073
     30 H6          5.0534   -5.4086   -4.8510 H         1 <0>         0.1105
     31 H7          3.0036   -5.5096   -6.3418 H         1 <0>         0.1091
     32 H8          2.7552   -3.6952   -6.1231 H         1 <0>         0.1128
     33 H9          2.1726    0.4459   -7.9303 H         1 <0>         0.1625
     34 H10         4.3569    3.0670   -5.3676 H         1 <0>         0.1620
     35 H11         1.7111   -4.9395   -1.9137 H         1 <0>         0.4251
@<TRIPOS>BOND
     1    1    2 1
     2    1   25 1
     3    1   26 1
     4    1   27 1
     5    2    3 1
     6    3   15 2
     7    3    4 1
     8    4    9 1
     9    4    5 2
    10    5    6 1
    11    5   14 1
    12    6    7 2
    13    7    8 1
    14    7   11 1
    15    8    9 am
    16    8   35 1
    17    9   10 2
    18   11   13 1
    19   11   12 1
    20   11   28 1
    21   12   13 1
    22   12   29 1
    23   12   30 1
    24   13   31 1
    25   13   32 1
    26   14   15 1
    27   14   16 1
    28   16   21 ar
    29   16   17 ar
    30   17   18 ar
    31   17   24 1
    32   18   19 ar
    33   18   33 1
    34   19   20 ar
    35   19   23 1
    36   20   21 ar
    37   20   34 1
    38   21   22 1
@<TRIPOS>MOLECULE
CHEMBL359200
   55    58     0     0     0
SMALL
USER_CHARGES

@<TRIPOS>ATOM
      1 C1          0.8448   -1.5314    1.6594 C.3       1 <0>        -0.1460
      2 C2          0.3360   -2.8709    1.1232 C.3       1 <0>        -0.0225
      3 C3          0.6353   -3.9742    2.1401 C.3       1 <0>        -0.1457
      4 C4         -1.1513   -2.7883    0.8948 C.2       1 <0>         0.1639
      5 C5         -1.8088   -2.9793   -0.3331 C.2       1 <0>        -0.3221
      6 C6         -3.1690   -2.8153   -0.1042 C.2       1 <0>         0.1484
      7 N1         -3.3199   -2.5372    1.2085 N.pl3     1 <0>        -0.4207
      8 H1         -4.1620   -2.3730    1.6610 H         1 <0>         0.4488
      9 N2         -2.0542   -2.5321    1.8058 N.2       1 <0>        -0.2638
     10 C7         -3.8983   -3.0094   -1.3804 C.ar      1 <0>         0.0169
     11 C8         -5.2478   -2.9557   -1.6958 C.ar      1 <0>        -0.0935
     12 C9         -5.6700   -3.1821   -2.9998 C.ar      1 <0>        -0.0639
     13 C10        -4.7581   -3.4617   -3.9927 C.ar      1 <0>        -0.1129
     14 C11        -3.3941   -3.5202   -3.6967 C.ar      1 <0>         0.1983
     15 C12        -2.9609   -3.2943   -2.3907 C.ar      1 <0>        -0.1722
     16 C13        -1.6178   -3.2852   -1.7680 C.2       1 <0>         0.4886
     17 O1         -0.5597   -3.4898   -2.3288 O.2       1 <0>        -0.4368
     18 N3         -2.4728   -3.8031   -4.6995 N.am      1 <0>        -0.6412
     19 C14        -2.7969   -4.6564   -5.6912 C.2       1 <0>         0.5053
     20 O2         -3.9181   -5.1142   -5.7549 O.2       1 <0>        -0.5056
     21 C15        -1.7661   -5.0415   -6.7208 C.3       1 <0>        -0.0294
     22 N4         -2.3627   -5.9748   -7.6857 N.4       1 <0>        -0.3717
     23 C16        -2.7232   -7.2214   -6.9998 C.3       1 <0>        -0.0195
     24 C17        -3.4186   -8.1660   -7.9824 C.3       1 <0>        -0.1235
     25 C18        -2.4687   -8.4763   -9.1428 C.3       1 <0>        -0.1251
     26 C19        -2.0407   -7.1632   -9.8043 C.3       1 <0>        -0.1391
     27 C20        -1.3963   -6.2557   -8.7542 C.3       1 <0>        -0.0039
     28 C21        -3.1743   -9.3432  -10.1536 C.2       1 <0>         0.5198
     29 O3         -4.3240   -9.6806   -9.9658 O.2       1 <0>        -0.5268
     30 N5         -2.5276   -9.7436  -11.2662 N.am      1 <0>        -0.8498
     31 H2          1.9206   -1.5911    1.8246 H         1 <0>         0.0692
     32 H3          0.6316   -0.7454    0.9349 H         1 <0>         0.0566
     33 H4          0.3448   -1.3032    2.6007 H         1 <0>         0.0646
     34 H5          0.8360   -3.0991    0.1819 H         1 <0>         0.0966
     35 H6          0.1353   -3.7461    3.0814 H         1 <0>         0.0646
     36 H7          0.2728   -4.9285    1.7581 H         1 <0>         0.0558
     37 H8          1.7110   -4.0340    2.3053 H         1 <0>         0.0692
     38 H9         -5.9725   -2.7376   -0.9254 H         1 <0>         0.1425
     39 H10        -6.7228   -3.1387   -3.2368 H         1 <0>         0.1493
     40 H11        -5.0981   -3.6367   -5.0027 H         1 <0>         0.1545
     41 H12        -1.5970   -3.3863   -4.6852 H         1 <0>         0.4291
     42 H13        -1.4233   -4.1485   -7.2434 H         1 <0>         0.1675
     43 H14        -0.9207   -5.5206   -6.2270 H         1 <0>         0.1675
     44 H15        -1.8214   -7.6977   -6.6150 H         1 <0>         0.1295
     45 H16        -3.3967   -6.9985   -6.1722 H         1 <0>         0.1513
     46 H17        -3.6838   -9.0917   -7.4716 H         1 <0>         0.1207
     47 H18        -4.3207   -7.6907   -8.3676 H         1 <0>         0.0996
     48 H19        -1.5893   -8.9975   -8.7645 H         1 <0>         0.1180
     49 H20        -1.3210   -7.3720  -10.5958 H         1 <0>         0.1201
     50 H21        -2.9142   -6.6671  -10.2274 H         1 <0>         0.0976
     51 H22        -1.0902   -5.3199   -9.2219 H         1 <0>         0.1394
     52 H23        -0.5228   -6.7526   -8.3320 H         1 <0>         0.1366
     53 H24        -1.6081   -9.4738  -11.4164 H         1 <0>         0.4030
     54 H25        -2.9818  -10.3016  -11.9168 H         1 <0>         0.4119
     55 H26        -3.1920   -5.5605   -8.0841 H         1 <0>         0.4311
@<TRIPOS>BOND
     1    1    2 1
     2    1   31 1
     3    1   32 1
     4    1   33 1
     5    2    3 1
     6    2    4 1
     7    2   34 1
     8    3   35 1
     9    3   36 1
    10    3   37 1
    11    4    9 2
    12    4    5 1
    13    5   16 1
    14    5    6 2
    15    6    7 1
    16    6   10 1
    17    7    8 1
    18    7    9 1
    19   10   15 ar
    20   10   11 ar
    21   11   12 ar
    22   11   38 1
    23   12   13 ar
    24   12   39 1
    25   13   14 ar
    26   13   40 1
    27   14   15 ar
    28   14   18 1
    29   15   16 1
    30   16   17 2
    31   18   19 am
    32   18   41 1
    33   19   20 2
    34   19   21 1
    35   21   22 1
    36   21   42 1
    37   21   43 1
    38   22   27 1
    39   22   23 1
    40   22   55 1
    41   23   24 1
    42   23   44 1
    43   23   45 1
    44   24   25 1
    45   24   46 1
    46   24   47 1
    47   25   26 1
    48   25   28 1
    49   25   48 1
    50   26   27 1
    51   26   49 1
    52   26   50 1
    53   27   51 1
    54   27   52 1
    55   28   29 2
    56   28   30 am
    57   30   53 1
    58   30   54 1
@<TRIPOS>MOLECULE
CHEMBL359200
   55    58     0     0     0
SMALL
USER_CHARGES

@<TRIPOS>ATOM
      1 C1          0.8511   -1.5380    1.6431 C.3       1 <0>        -0.1517
      2 C2          0.3396   -2.8767    1.1073 C.3       1 <0>        -0.0457
      3 C3          0.6401   -3.9808    2.1229 C.3       1 <0>        -0.1516
      4 C4         -1.1481   -2.7923    0.8824 C.2       1 <0>         0.2120
      5 C5         -1.7907   -2.9703   -0.3062 C.2       1 <0>        -0.3512
      6 C6         -3.2223   -2.7959   -0.0439 C.2       1 <0>         0.1164
      7 N1         -3.3478   -2.5346    1.2337 N.2       1 <0>        -0.2264
      8 H1         -1.8961   -2.3697    2.7605 H         1 <0>         0.4505
      9 N2         -2.0784   -2.5334    1.8220 N.pl3     1 <0>        -0.4603
     10 C7         -3.9406   -2.9861   -1.3282 C.ar      1 <0>         0.0483
     11 C8         -5.2918   -2.9315   -1.6452 C.ar      1 <0>        -0.0909
     12 C9         -5.7134   -3.1497   -2.9465 C.ar      1 <0>        -0.0628
     13 C10        -4.7989   -3.4236   -3.9426 C.ar      1 <0>        -0.1166
     14 C11        -3.4405   -3.4838   -3.6488 C.ar      1 <0>         0.1932
     15 C12        -3.0014   -3.2645   -2.3366 C.ar      1 <0>        -0.1729
     16 C13        -1.6487   -3.2644   -1.7440 C.2       1 <0>         0.4972
     17 O1         -0.6062   -3.4702   -2.3350 O.2       1 <0>        -0.4510
     18 N3         -2.5202   -3.7613   -4.6556 N.am      1 <0>        -0.6401
     19 C14        -2.8459   -4.6091   -5.6514 C.2       1 <0>         0.5041
     20 O2         -3.9672   -5.0665   -5.7159 O.2       1 <0>        -0.5063
     21 C15        -1.8166   -4.9887   -6.6847 C.3       1 <0>        -0.0293
     22 N4         -2.4148   -5.9167   -7.6537 N.4       1 <0>        -0.3716
     23 C16        -2.7744   -7.1670   -6.9740 C.3       1 <0>        -0.0194
     24 C17        -3.4714   -8.1062   -7.9606 C.3       1 <0>        -0.1236
     25 C18        -2.5232   -8.4103   -9.1241 C.3       1 <0>        -0.1250
     26 C19        -2.0961   -7.0936   -9.7792 C.3       1 <0>        -0.1391
     27 C20        -1.4500   -6.1919   -8.7251 C.3       1 <0>        -0.0038
     28 C21        -3.2304   -9.2717  -10.1385 C.2       1 <0>         0.5198
     29 O3         -4.3799   -9.6100   -9.9508 O.2       1 <0>        -0.5266
     30 N5         -2.5855   -9.6661  -11.2543 N.am      1 <0>        -0.8500
     31 H2          1.9272   -1.5990    1.8057 H         1 <0>         0.0774
     32 H3          0.6371   -0.7514    0.9195 H         1 <0>         0.0641
     33 H4          0.3535   -1.3098    2.5857 H         1 <0>         0.0585
     34 H5          0.8372   -3.1048    0.1647 H         1 <0>         0.1095
     35 H6          0.2756   -4.9346    1.7412 H         1 <0>         0.0633
     36 H7          1.7161   -4.0419    2.2856 H         1 <0>         0.0774
     37 H8          0.1425   -3.7527    3.0655 H         1 <0>         0.0585
     38 H9         -6.0169   -2.7183   -0.8737 H         1 <0>         0.1453
     39 H10        -6.7662   -3.1055   -3.1832 H         1 <0>         0.1484
     40 H11        -5.1388   -3.5921   -4.9538 H         1 <0>         0.1530
     41 H12        -1.6445   -3.3444   -4.6406 H         1 <0>         0.4282
     42 H13        -1.4745   -4.0929   -7.2029 H         1 <0>         0.1668
     43 H14        -0.9705   -5.4706   -6.1947 H         1 <0>         0.1666
     44 H15        -1.8721   -7.6454   -6.5931 H         1 <0>         0.1290
     45 H16        -3.4466   -6.9485   -6.1442 H         1 <0>         0.1519
     46 H17        -3.7359   -9.0346   -7.4545 H         1 <0>         0.1206
     47 H18        -4.3740   -7.6288   -8.3419 H         1 <0>         0.0997
     48 H19        -1.6433   -8.9336   -8.7500 H         1 <0>         0.1178
     49 H20        -1.3776   -7.2983  -10.5729 H         1 <0>         0.1197
     50 H21        -2.9702   -6.5952  -10.1982 H         1 <0>         0.0977
     51 H22        -1.1445   -5.2537   -9.1882 H         1 <0>         0.1391
     52 H23        -0.5760   -6.6912   -8.3070 H         1 <0>         0.1362
     53 H24        -1.6662   -9.3955  -11.4045 H         1 <0>         0.4029
     54 H25        -3.0407  -10.2205  -11.9073 H         1 <0>         0.4118
     55 H26        -3.2447   -5.5002   -8.0486 H         1 <0>         0.4312
@<TRIPOS>BOND
     1    1    2 1
     2    1   31 1
     3    1   32 1
     4    1   33 1
     5    2    3 1
     6    2    4 1
     7    2   34 1
     8    3   35 1
     9    3   36 1
    10    3   37 1
    11    4    5 2
    12    4    9 1
    13    5   16 1
    14    5    6 1
    15    6   10 1
    16    6    7 2
    17    7    9 1
    18    8    9 1
    19   10   15 ar
    20   10   11 ar
    21   11   12 ar
    22   11   38 1
    23   12   13 ar
    24   12   39 1
    25   13   14 ar
    26   13   40 1
    27   14   15 ar
    28   14   18 1
    29   15   16 1
    30   16   17 2
    31   18   19 am
    32   18   41 1
    33   19   20 2
    34   19   21 1
    35   21   22 1
    36   21   42 1
    37   21   43 1
    38   22   27 1
    39   22   23 1
    40   22   55 1
    41   23   24 1
    42   23   44 1
    43   23   45 1
    44   24   25 1
    45   24   46 1
    46   24   47 1
    47   25   26 1
    48   25   28 1
    49   25   48 1
    50   26   27 1
    51   26   49 1
    52   26   50 1
    53   27   51 1
    54   27   52 1
    55   28   29 2
    56   28   30 am
    57   30   53 1
    58   30   54 1
@<TRIPOS>MOLECULE
CHEMBL1083785
   55    58     0     0     0
SMALL
USER_CHARGES

@<TRIPOS>ATOM
      1 C1         -0.2685    1.4800   -0.0128 C.3       1 <0>        -0.0862
      2 C2          0.4560    0.1599    0.0468 C.2       1 <0>         0.1883
      3 C3          1.0115   -0.4073   -1.0721 C.2       1 <0>        -0.2518
      4 S1          1.6984   -1.9026   -0.3788 S.3       1 <0>         0.1232
      5 C4          1.2222   -1.6598    1.2171 C.2       1 <0>         0.3297
      6 N1          0.5914   -0.5020    1.1740 N.2       1 <0>        -0.5924
      7 N2          1.4433   -2.4751    2.3108 N.pl3     1 <0>        -0.6754
      8 C5          0.9425   -2.0823    3.6303 C.3       1 <0>         0.0977
      9 C6          1.0348    0.0821   -2.4618 C.ar      1 <0>         0.3329
     10 C7          1.6604   -0.6651   -3.4701 C.ar      1 <0>        -0.2852
     11 C8          1.6564   -0.1653   -4.7571 C.ar      1 <0>         0.1968
     12 N3          1.0665    0.9962   -5.0007 N.ar      1 <0>        -0.5669
     13 C9          0.4820    1.6832   -4.0297 C.ar      1 <0>         0.5721
     14 N4          0.4562    1.2409   -2.7824 N.ar      1 <0>        -0.5633
     15 N5         -0.1223    2.8930   -4.3289 N.pl3     1 <0>        -0.6349
     16 C10        -0.0326    3.4193   -5.6241 C.ar      1 <0>         0.1030
     17 C11        -0.0457    2.5688   -6.7216 C.ar      1 <0>        -0.0607
     18 C12         0.0426    3.0875   -7.9982 C.ar      1 <0>        -0.1809
     19 C13         0.1441    4.4599   -8.1845 C.ar      1 <0>         0.2045
     20 C14         0.1568    5.3105   -7.0869 C.ar      1 <0>        -0.1794
     21 C15         0.0635    4.7920   -5.8106 C.ar      1 <0>        -0.0945
     22 N6          0.2341    4.9857   -9.4784 N.pl3     1 <0>        -0.6313
     23 C16         0.4720    6.4208   -9.6877 C.3       1 <0>         0.1097
     24 C17         1.7120    6.5877  -10.5747 C.3       1 <0>         0.0943
     25 N7          1.5708    5.7146  -11.7484 N.am      1 <0>        -0.6149
     26 C18         1.3329    4.2795  -11.5391 C.3       1 <0>         0.0882
     27 C19         0.0985    4.1116  -10.6521 C.3       1 <0>         0.1074
     28 C20         1.6575    6.2209  -12.9944 C.2       1 <0>         0.5133
     29 O1          1.7493    7.4193  -13.1570 O.2       1 <0>        -0.5444
     30 C21         1.6405    5.2980  -14.1857 C.3       1 <0>        -0.1767
     31 H1          0.4397    2.2911    0.1566 H         1 <0>         0.0780
     32 H2         -0.7284    1.5981   -0.9939 H         1 <0>         0.0998
     33 H3         -1.0408    1.5056    0.7559 H         1 <0>         0.0696
     34 H4          1.9300   -3.3074    2.2048 H         1 <0>         0.4224
     35 H5          1.2109   -2.8440    4.3623 H         1 <0>         0.0834
     36 H6          1.3861   -1.1293    3.9184 H         1 <0>         0.0643
     37 H7         -0.1422   -1.9814    3.5920 H         1 <0>         0.0643
     38 H8          2.1346   -1.6091   -3.2452 H         1 <0>         0.1407
     39 H9          2.1295   -0.7152   -5.5572 H         1 <0>         0.1703
     40 H10        -0.6075    3.3758   -3.6417 H         1 <0>         0.4207
     41 H11        -0.1247    1.5014   -6.5767 H         1 <0>         0.1423
     42 H12         0.0331    2.4259   -8.8518 H         1 <0>         0.1242
     43 H13         0.2360    6.3778   -7.2317 H         1 <0>         0.1253
     44 H14         0.0696    5.4538   -4.9571 H         1 <0>         0.1234
     45 H15        -0.3923    6.8669  -10.1796 H         1 <0>         0.0665
     46 H16         0.6411    6.9075   -8.7272 H         1 <0>         0.0954
     47 H17         1.7933    7.6254  -10.8984 H         1 <0>         0.1022
     48 H18         2.6034    6.3058  -10.0142 H         1 <0>         0.0722
     49 H19         1.1638    3.7928  -12.4996 H         1 <0>         0.0995
     50 H20         2.1973    3.8333  -11.0472 H         1 <0>         0.0756
     51 H21         0.0210    3.0737  -10.3283 H         1 <0>         0.0978
     52 H22        -0.7931    4.3896  -11.2142 H         1 <0>         0.0666
     53 H23         0.6216    5.2107  -14.5630 H         1 <0>         0.0953
     54 H24         2.2841    5.7018  -14.9673 H         1 <0>         0.0953
     55 H25         2.0034    4.3142  -13.8883 H         1 <0>         0.0824
@<TRIPOS>BOND
     1    1    2 1
     2    1   31 1
     3    1   32 1
     4    1   33 1
     5    2    6 1
     6    2    3 2
     7    3    4 1
     8    3    9 1
     9    4    5 1
    10    5    6 2
    11    5    7 1
    12    7    8 1
    13    7   34 1
    14    8   35 1
    15    8   36 1
    16    8   37 1
    17    9   14 ar
    18    9   10 ar
    19   10   11 ar
    20   10   38 1
    21   11   12 ar
    22   11   39 1
    23   12   13 ar
    24   13   14 ar
    25   13   15 1
    26   15   16 1
    27   15   40 1
    28   16   21 ar
    29   16   17 ar
    30   17   18 ar
    31   17   41 1
    32   18   19 ar
    33   18   42 1
    34   19   20 ar
    35   19   22 1
    36   20   21 ar
    37   20   43 1
    38   21   44 1
    39   22   27 1
    40   22   23 1
    41   23   24 1
    42   23   45 1
    43   23   46 1
    44   24   25 1
    45   24   47 1
    46   24   48 1
    47   25   26 1
    48   25   28 am
    49   26   27 1
    50   26   49 1
    51   26   50 1
    52   27   51 1
    53   27   52 1
    54   28   29 2
    55   28   30 1
    56   30   53 1
    57   30   54 1
    58   30   55 1
@<TRIPOS>MOLECULE
CHEMBL407709
   36    39     0     0     0
SMALL
USER_CHARGES

@<TRIPOS>ATOM
      1 C1         -0.0168    1.3857    0.0097 C.ar      1 <0>        -0.1730
      2 C2          1.1705    2.0906    0.0021 C.ar      1 <0>         0.0174
      3 C3          2.3775    1.4154   -0.0135 C.ar      1 <0>        -0.7000
      4 C4          2.4002    0.0326   -0.0211 C.ar      1 <0>         0.0139
      5 C5          1.2170   -0.6791   -0.0137 C.ar      1 <0>        -0.1581
      6 C6          0.0021   -0.0041    0.0020 C.ar      1 <0>         0.2241
      7 N1         -1.1955   -0.7197    0.0096 N.pl3     1 <0>        -0.4834
      8 N2         -1.1762   -2.0096    0.0025 N.2       1 <0>        -0.1074
      9 C7         -2.3046   -2.6839    0.0097 C.2       1 <0>        -0.0160
     10 C8         -2.4740   -4.1552    0.0094 C.ar      1 <0>        -0.0256
     11 C9         -3.8552   -4.3906    0.0187 C.ar      1 <0>         0.1724
     12 C10        -4.3111   -5.7088    0.0205 C.ar      1 <0>        -0.1164
     13 C11        -3.4517   -6.7626    0.0135 C.ar      1 <0>        -0.0138
     14 C12        -2.0534   -6.5648    0.0040 C.ar      1 <0>         0.0610
     15 C13        -1.6003   -5.2278    0.0018 C.ar      1 <0>        -0.1108
     16 S1          0.1611   -5.4350   -0.0102 S.3       1 <0>         0.1178
     17 C14         0.2003   -7.1176   -0.0125 C.2       1 <0>         0.0695
     18 N3         -1.0519   -7.4695   -0.0042 N.2       1 <0>        -0.5026
     19 N4         -4.5288   -3.1747    0.0246 N.am      1 <0>        -0.6359
     20 C15        -3.6725   -2.1392    0.0261 C.2       1 <0>         0.5499
     21 O1         -3.9743   -0.9596    0.0363 O.2       1 <0>        -0.5118
     22 S2          3.8899    2.3193   -0.0243 S.o2      1 <0>         2.7045
     23 O2          4.8717    1.4614   -0.5894 O.2       1 <0>        -0.9617
     24 O3          3.5942    3.5994   -0.5657 O.2       1 <0>        -0.9626
     25 N5          4.3262    2.5625    1.5546 N.pl3     1 <0>        -1.2502
     26 H1         -0.9588    1.9136    0.0260 H         1 <0>         0.1427
     27 H2          1.1567    3.1705    0.0080 H         1 <0>         0.1531
     28 H3          3.3446   -0.4912   -0.0333 H         1 <0>         0.1525
     29 H4          1.2355   -1.7589   -0.0204 H         1 <0>         0.1503
     30 H5         -2.0427   -0.2474    0.0202 H         1 <0>         0.4140
     31 H6         -5.3745   -5.8974    0.0281 H         1 <0>         0.1469
     32 H7         -3.8454   -7.7683    0.0156 H         1 <0>         0.1484
     33 H8          1.0687   -7.7597   -0.0191 H         1 <0>         0.2257
     34 H9         -5.4946   -3.0851    0.0313 H         1 <0>         0.4270
     35 H10         3.7677    2.2208    2.2703 H         1 <0>         0.4169
     36 H11         5.1404    3.0466    1.7638 H         1 <0>         0.4217
@<TRIPOS>BOND
     1    1    6 ar
     2    1    2 ar
     3    1   26 1
     4    2    3 ar
     5    2   27 1
     6    3    4 ar
     7    3   22 1
     8    4    5 ar
     9    4   28 1
    10    5    6 ar
    11    5   29 1
    12    6    7 1
    13    7    8 1
    14    7   30 1
    15    8    9 2
    16    9   20 1
    17    9   10 1
    18   10   15 ar
    19   10   11 ar
    20   11   12 ar
    21   11   19 1
    22   12   13 ar
    23   12   31 1
    24   13   14 ar
    25   13   32 1
    26   14   18 1
    27   14   15 ar
    28   15   16 1
    29   16   17 1
    30   17   18 2
    31   17   33 1
    32   19   20 am
    33   19   34 1
    34   20   21 2
    35   22   23 2
    36   22   24 2
    37   22   25 1
    38   25   35 1
    39   25   36 1
@<TRIPOS>MOLECULE
CHEMBL256558
   47    50     0     0     0
SMALL
USER_CHARGES

@<TRIPOS>ATOM
      1 C1         -0.0184    1.5028    0.0103 C.3       1 <0>        -0.1171
      2 C2          0.0021   -0.0041    0.0020 C.ar      1 <0>        -0.0821
      3 C3          0.0057   -0.6887   -1.1989 C.ar      1 <0>        -0.1198
      4 C4          0.0245   -2.0709   -1.2065 C.ar      1 <0>        -0.0985
      5 C5          0.0400   -2.7685   -0.0132 C.ar      1 <0>        -0.0804
      6 C6          0.0373   -2.0839    1.1877 C.ar      1 <0>        -0.0986
      7 C7          0.0229   -0.7016    1.1953 C.ar      1 <0>        -0.1199
      8 C8          0.0595   -4.2753   -0.0215 C.3       1 <0>        -0.0942
      9 C9          1.4866   -4.7592   -0.0320 C.2       1 <0>         0.5051
     10 O1          2.3983   -3.9592   -0.0328 O.2       1 <0>        -0.4736
     11 N1          1.7500   -6.0810   -0.0407 N.am      1 <0>        -0.6374
     12 C10         3.0755   -6.5304   -0.0505 C.2       1 <0>         0.3112
     13 C11         3.5137   -7.9268   -0.0664 C.ar      1 <0>        -0.1503
     14 C12         2.8427   -9.1539   -0.0757 C.ar      1 <0>        -0.0798
     15 C13         3.5714  -10.3267   -0.0901 C.ar      1 <0>         0.1763
     16 C14         4.9662  -10.2891   -0.0952 C.ar      1 <0>        -0.1075
     17 C15         5.6320   -9.0975   -0.0861 C.ar      1 <0>        -0.0987
     18 C16         4.9206   -7.9000   -0.0716 C.ar      1 <0>         0.1238
     19 N2          5.2918   -6.5782   -0.0597 N.pl3     1 <0>        -0.5014
     20 H1          6.2049   -6.2507   -0.0605 H         1 <0>         0.4453
     21 N3          4.1442   -5.7790   -0.0528 N.2       1 <0>        -0.2259
     22 N4          2.9078  -11.5591   -0.0991 N.pl3     1 <0>        -0.9294
     23 C17         1.5476  -11.8391    0.3953 C.3       1 <0>         0.0633
     24 C18         0.9100  -13.0037   -0.3850 C.3       1 <0>        -0.1309
     25 C19         2.0199  -14.0952   -0.4607 C.3       1 <0>        -0.5886
     26 S1          3.4940  -13.0177   -0.6810 S.o2      1 <0>         2.5543
     27 O2          3.7573  -12.7979   -2.0599 O.2       1 <0>        -0.9416
     28 O3          4.5296  -13.3954    0.2158 O.2       1 <0>        -0.9444
     29 H2          1.0042    1.8801    0.0026 H         1 <0>         0.0713
     30 H3         -0.5455    1.8639   -0.8728 H         1 <0>         0.0666
     31 H4         -0.5286    1.8543    0.9071 H         1 <0>         0.0666
     32 H5         -0.0064   -0.1436   -2.1312 H         1 <0>         0.1223
     33 H6          0.0266   -2.6057   -2.1448 H         1 <0>         0.1202
     34 H7          0.0491   -2.6289    2.1200 H         1 <0>         0.1201
     35 H8          0.0245   -0.1667    2.1335 H         1 <0>         0.1223
     36 H9         -0.4447   -4.6501    0.8693 H         1 <0>         0.1084
     37 H10        -0.4546   -4.6404   -0.9106 H         1 <0>         0.1085
     38 H11         1.0209   -6.7208   -0.0401 H         1 <0>         0.4211
     39 H12         1.7631   -9.1839   -0.0715 H         1 <0>         0.1316
     40 H13         5.5253  -11.2130   -0.1061 H         1 <0>         0.1362
     41 H14         6.7119   -9.0831   -0.0902 H         1 <0>         0.1400
     42 H15         1.5969  -12.1001    1.4525 H         1 <0>         0.0890
     43 H16         0.9319  -10.9476    0.2758 H         1 <0>         0.1017
     44 H17         0.0394  -13.3853    0.1484 H         1 <0>         0.1197
     45 H18         0.6290  -12.6793   -1.3870 H         1 <0>         0.0992
     46 H19         2.0770  -14.6683    0.4647 H         1 <0>         0.1478
     47 H20         1.8764  -14.7485   -1.3214 H         1 <0>         0.1480
@<TRIPOS>BOND
     1    1    2 1
     2    1   29 1
     3    1   30 1
     4    1   31 1
     5    2    7 ar
     6    2    3 ar
     7    3    4 ar
     8    3   32 1
     9    4    5 ar
    10    4   33 1
    11    5    6 ar
    12    5    8 1
    13    6    7 ar
    14    6   34 1
    15    7   35 1
    16    8    9 1
    17    8   36 1
    18    8   37 1
    19    9   10 2
    20    9   11 am
    21   11   12 1
    22   11   38 1
    23   12   21 2
    24   12   13 1
    25   13   18 ar
    26   13   14 ar
    27   14   15 ar
    28   14   39 1
    29   15   16 ar
    30   15   22 1
    31   16   17 ar
    32   16   40 1
    33   17   18 ar
    34   17   41 1
    35   18   19 1
    36   19   20 1
    37   19   21 1
    38   22   26 1
    39   22   23 1
    40   23   24 1
    41   23   42 1
    42   23   43 1
    43   24   25 1
    44   24   44 1
    45   24   45 1
    46   25   26 1
    47   25   46 1
    48   25   47 1
    49   26   27 2
    50   26   28 2
@<TRIPOS>MOLECULE
CHEMBL271136
   59    62     0     0     0
SMALL
USER_CHARGES

@<TRIPOS>ATOM
      1 C1         -0.0173    1.4248    0.0099 C.3       1 <0>         0.0260
      2 O1          0.0021   -0.0041    0.0020 O.3       1 <0>        -0.3066
      3 C2          0.6058   -0.6071   -1.0557 C.ar      1 <0>         0.1844
      4 C3          1.1729    0.1615   -2.0624 C.ar      1 <0>        -0.2480
      5 C4          1.7864   -0.4511   -3.1383 C.ar      1 <0>        -0.0290
      6 C5          1.8369   -1.8298   -3.2148 C.ar      1 <0>        -0.2479
      7 C6          1.2717   -2.6027   -2.2104 C.ar      1 <0>         0.1844
      8 C7          0.6605   -1.9905   -1.1270 C.ar      1 <0>        -0.1835
      9 C8          0.0509   -2.8275   -0.0321 C.3       1 <0>         0.1828
     10 N1         -1.3492   -3.1113   -0.3564 N.am      1 <0>        -0.7151
     11 C9         -2.0997   -3.8494    0.4853 C.2       1 <0>         0.5627
     12 O2         -1.6146   -4.2798    1.5137 O.2       1 <0>        -0.5337
     13 C10        -3.5106   -4.1354    0.1584 C.ar      1 <0>        -0.1518
     14 C11        -4.0696   -3.6462   -1.0272 C.ar      1 <0>        -0.0428
     15 C12        -5.3831   -3.9085   -1.3394 C.ar      1 <0>        -0.1384
     16 C13        -6.1737   -4.6659   -0.4768 C.ar      1 <0>         0.1743
     17 C14        -5.6150   -5.1575    0.7130 C.ar      1 <0>        -0.0833
     18 C15        -4.2898   -4.8994    1.0281 C.ar      1 <0>         0.0133
     19 C16        -6.6916   -5.9100    1.3990 C.2       1 <0>        -0.0118
     20 N2         -6.6194   -6.5417    2.5491 N.2       1 <0>        -0.1103
     21 N3         -7.6548   -7.1545    3.0145 N.pl3     1 <0>        -0.4873
     22 C17        -7.5781   -7.8252    4.2357 C.ar      1 <0>         0.2260
     23 C18        -6.3887   -7.8292    4.9548 C.ar      1 <0>        -0.1585
     24 C19        -6.3168   -8.4936    6.1631 C.ar      1 <0>         0.0141
     25 C20        -7.4263   -9.1545    6.6580 C.ar      1 <0>        -0.7012
     26 C21        -8.6116   -9.1527    5.9452 C.ar      1 <0>         0.0171
     27 C22        -8.6926   -8.4860    4.7387 C.ar      1 <0>        -0.1749
     28 S1         -7.3295  -10.0014    8.2000 S.o2      1 <0>         2.7046
     29 O3         -8.3428  -10.9975    8.1806 O.2       1 <0>        -0.9634
     30 O4         -5.9587  -10.3132    8.4068 O.2       1 <0>        -0.9618
     31 N4         -7.7521   -8.9194    9.3803 N.pl3     1 <0>        -1.2503
     32 C23        -7.8602   -5.7948    0.5105 C.2       1 <0>         0.5484
     33 O5         -8.9605   -6.2769    0.7088 O.2       1 <0>        -0.5139
     34 N5         -7.4987   -5.0641   -0.5574 N.am      1 <0>        -0.6403
     35 O6          1.3216   -3.9587   -2.2862 O.3       1 <0>        -0.3065
     36 C24         1.9716   -4.5211   -3.4278 C.3       1 <0>         0.0259
     37 H1          1.0053    1.8021    0.0021 H         1 <0>         0.0587
     38 H2         -0.5445    1.7859   -0.8732 H         1 <0>         0.0583
     39 H3         -0.5275    1.7763    0.9067 H         1 <0>         0.1035
     40 H4          1.1344    1.2393   -2.0050 H         1 <0>         0.1325
     41 H5          2.2269    0.1488   -3.9210 H         1 <0>         0.1304
     42 H6          2.3164   -2.3062   -4.0571 H         1 <0>         0.1326
     43 H7          0.6003   -3.7646    0.0575 H         1 <0>         0.0814
     44 H8          0.1024   -2.2845    0.9117 H         1 <0>         0.0814
     45 H9         -1.7362   -2.7679   -1.1769 H         1 <0>         0.3976
     46 H10        -3.4654   -3.0581   -1.7021 H         1 <0>         0.1367
     47 H11        -5.8042   -3.5255   -2.2572 H         1 <0>         0.1397
     48 H12        -3.8641   -5.2842    1.9430 H         1 <0>         0.1493
     49 H13        -8.4866   -7.1491    2.5156 H         1 <0>         0.4129
     50 H14        -5.5218   -7.3136    4.5688 H         1 <0>         0.1514
     51 H15        -5.3928   -8.4975    6.7223 H         1 <0>         0.1523
     52 H16        -9.4760   -9.6698    6.3347 H         1 <0>         0.1524
     53 H17        -9.6197   -8.4812    4.1848 H         1 <0>         0.1420
     54 H18        -7.9904   -8.0099    9.1416 H         1 <0>         0.4169
     55 H19        -7.7611   -9.1950   10.3102 H         1 <0>         0.4215
     56 H20        -8.0910   -4.8430   -1.2930 H         1 <0>         0.4242
     57 H21         1.4605   -4.1958   -4.3339 H         1 <0>         0.0583
     58 H22         3.0090   -4.1878   -3.4562 H         1 <0>         0.0587
     59 H23         1.9411   -5.6088   -3.3640 H         1 <0>         0.1036
@<TRIPOS>BOND
     1    1    2 1
     2    1   37 1
     3    1   38 1
     4    1   39 1
     5    2    3 1
     6    3    8 ar
     7    3    4 ar
     8    4    5 ar
     9    4   40 1
    10    5    6 ar
    11    5   41 1
    12    6    7 ar
    13    6   42 1
    14    7    8 ar
    15    7   35 1
    16    8    9 1
    17    9   10 1
    18    9   43 1
    19    9   44 1
    20   10   11 am
    21   10   45 1
    22   11   12 2
    23   11   13 1
    24   13   18 ar
    25   13   14 ar
    26   14   15 ar
    27   14   46 1
    28   15   16 ar
    29   15   47 1
    30   16   34 1
    31   16   17 ar
    32   17   18 ar
    33   17   19 1
    34   18   48 1
    35   19   20 2
    36   19   32 1
    37   20   21 1
    38   21   22 1
    39   21   49 1
    40   22   27 ar
    41   22   23 ar
    42   23   24 ar
    43   23   50 1
    44   24   25 ar
    45   24   51 1
    46   25   26 ar
    47   25   28 1
    48   26   27 ar
    49   26   52 1
    50   27   53 1
    51   28   29 2
    52   28   30 2
    53   28   31 1
    54   31   54 1
    55   31   55 1
    56   32   33 2
    57   32   34 am
    58   34   56 1
    59   35   36 1
    60   36   57 1
    61   36   58 1
    62   36   59 1
@<TRIPOS>MOLECULE
CHEMBL186163
   41    44     0     0     0
SMALL
USER_CHARGES

@<TRIPOS>ATOM
      1 C1          0.0460    1.4528   -0.0489 C.ar      1 <0>        -0.0404
      2 C2          0.6323    1.1109   -1.2542 C.ar      1 <0>        -0.1611
      3 C3          1.8337    0.4285   -1.2740 C.ar      1 <0>         0.1645
      4 C4          2.4577    0.0835   -0.0692 C.ar      1 <0>        -0.2213
      5 C5          1.8573    0.4340    1.1458 C.ar      1 <0>         0.1635
      6 C6          0.6554    1.1161    1.1464 C.ar      1 <0>        -0.1614
      7 F1          2.4506    0.1058    2.3143 F         1 <0>        -0.1205
      8 C7          3.7399   -0.6452   -0.0800 C.2       1 <0>         0.4642
      9 O1          4.7863   -0.0336   -0.1820 O.2       1 <0>        -0.4206
     10 C8          3.7533   -2.1160    0.0328 C.2       1 <0>        -0.1923
     11 C9          2.5374   -2.8405    0.0362 C.2       1 <0>        -0.0502
     12 C10         2.5663   -4.1947    0.1408 C.2       1 <0>        -0.0925
     13 C11         3.8031   -4.8618    0.2446 C.2       1 <0>         0.2976
     14 N1          4.0971   -6.1550    0.3554 N.2       1 <0>        -0.5202
     15 C12         5.4148   -6.3167    0.4239 C.2       1 <0>         0.4241
     16 C13         6.0082   -5.0545    0.3531 C.2       1 <0>        -0.1849
     17 N2          4.9677   -4.1434    0.2395 N.pl3     1 <0>        -0.3252
     18 C14         4.9512   -2.7932    0.1299 C.2       1 <0>         0.1509
     19 C15         7.3876   -4.7642    0.3902 C.2       1 <0>         0.2166
     20 S1          8.3147   -4.8281   -1.0476 S.2       1 <0>        -0.3050
     21 C16         8.0326   -4.4048    1.6696 C.ar      1 <0>        -0.1926
     22 C17         7.3099   -4.4731    2.8647 C.ar      1 <0>         0.1861
     23 C18         7.9210   -4.1356    4.0576 C.ar      1 <0>        -0.1792
     24 C19         9.2436   -3.7312    4.0713 C.ar      1 <0>        -0.0133
     25 C20         9.9654   -3.6609    2.8935 C.ar      1 <0>        -0.1803
     26 C21         9.3708   -4.0000    1.6928 C.ar      1 <0>         0.1979
     27 F2         10.0792   -3.9361    0.5442 F         1 <0>        -0.0842
     28 F3          6.0177   -4.8675    2.8534 F         1 <0>        -0.1104
     29 N3          6.0829   -7.5264    0.5443 N.pl3     1 <0>        -0.8275
     30 F4          2.4042    0.0948   -2.4523 F         1 <0>        -0.1193
     31 H1         -0.8911    1.9897   -0.0410 H         1 <0>         0.1526
     32 H2          0.1494    1.3778   -2.1827 H         1 <0>         0.1532
     33 H3          0.1907    1.3873    2.0828 H         1 <0>         0.1529
     34 H4          1.5940   -2.3208   -0.0434 H         1 <0>         0.1511
     35 H5          1.6447   -4.7578    0.1448 H         1 <0>         0.1659
     36 H6          5.8809   -2.2436    0.1228 H         1 <0>         0.1717
     37 H7          7.3641   -4.1875    4.9815 H         1 <0>         0.1530
     38 H8          9.7151   -3.4684    5.0067 H         1 <0>         0.1551
     39 H9         10.9977   -3.3438    2.9127 H         1 <0>         0.1562
     40 H10         5.5871   -8.3595    0.5125 H         1 <0>         0.4153
     41 H11         7.0459   -7.5392    0.6603 H         1 <0>         0.4101
@<TRIPOS>BOND
     1    1    6 ar
     2    1    2 ar
     3    1   31 1
     4    2    3 ar
     5    2   32 1
     6    3    4 ar
     7    3   30 1
     8    4    5 ar
     9    4    8 1
    10    5    6 ar
    11    5    7 1
    12    6   33 1
    13    8    9 2
    14    8   10 1
    15   10   18 2
    16   10   11 1
    17   11   12 2
    18   11   34 1
    19   12   13 1
    20   12   35 1
    21   13   17 1
    22   13   14 2
    23   14   15 1
    24   15   16 2
    25   15   29 1
    26   16   17 1
    27   16   19 1
    28   17   18 1
    29   18   36 1
    30   19   20 2
    31   19   21 1
    32   21   26 ar
    33   21   22 ar
    34   22   23 ar
    35   22   28 1
    36   23   24 ar
    37   23   37 1
    38   24   25 ar
    39   24   38 1
    40   25   26 ar
    41   25   39 1
    42   26   27 1
    43   29   40 1
    44   29   41 1
@<TRIPOS>MOLECULE
CHEMBL362109
   47    50     0     0     0
SMALL
USER_CHARGES

@<TRIPOS>ATOM
      1 C1          0.0114    1.4488    0.0483 C.3       1 <0>         0.0249
      2 O1          0.0209    0.0199    0.0342 O.3       1 <0>        -0.3144
      3 C2          0.6462   -0.6030    1.0669 C.ar      1 <0>         0.1448
      4 C3          1.2335    0.1487    2.0760 C.ar      1 <0>        -0.2136
      5 C4          1.8688   -0.4803    3.1256 C.ar      1 <0>        -0.0420
      6 C5          1.9214   -1.8732    3.1730 C.ar      1 <0>        -0.0744
      7 C6          1.3306   -2.6252    2.1579 C.ar      1 <0>        -0.0348
      8 C7          0.6918   -1.9901    1.1141 C.ar      1 <0>        -0.1524
      9 C8          2.6039   -2.5526    4.2994 C.2       1 <0>         0.2026
     10 C9          2.2179   -3.7801    4.8890 C.2       1 <0>        -0.3131
     11 C10         3.1242   -4.0524    5.9052 C.2       1 <0>         0.1578
     12 N1          4.0162   -3.0386    5.9298 N.pl3     1 <0>        -0.4235
     13 H1          4.7665   -2.9595    6.5394 H         1 <0>         0.4475
     14 N2          3.6804   -2.1243    4.9253 N.2       1 <0>        -0.2701
     15 C11         2.7518   -5.3349    6.5495 C.ar      1 <0>         0.0139
     16 C12         3.3174   -6.0466    7.5970 C.ar      1 <0>        -0.1085
     17 C13         2.7544   -7.2476    8.0097 C.ar      1 <0>        -0.0620
     18 C14         1.6318   -7.7454    7.3869 C.ar      1 <0>        -0.1240
     19 C15         1.0463   -7.0446    6.3299 C.ar      1 <0>         0.2459
     20 C16         1.6043   -5.8382    5.9086 C.ar      1 <0>        -0.1941
     21 C17         1.2317   -4.8787    4.8448 C.2       1 <0>         0.4857
     22 O2          0.2921   -4.9761    4.0803 O.2       1 <0>        -0.4344
     23 N3         -0.0877   -7.5476    5.7009 N.am      1 <0>        -0.6749
     24 C18        -0.9092   -8.3865    6.3626 C.2       1 <0>         0.7185
     25 O3         -0.7169   -8.6231    7.5395 O.2       1 <0>        -0.5431
     26 N4         -1.9438   -8.9631    5.7196 N.am      1 <0>        -0.5190
     27 N5         -2.1654   -8.6904    4.3634 N.am      1 <0>        -0.5039
     28 C19        -3.2001   -9.2670    3.7204 C.2       1 <0>         0.6601
     29 O4         -3.3923   -9.0305    2.5441 O.2       1 <0>        -0.5427
     30 O5         -4.0207  -10.1051    4.3814 O.3       1 <0>        -0.3638
     31 C20        -5.0968  -10.6803    3.6376 C.3       1 <0>         0.0524
     32 H2          1.0365    1.8190    0.0362 H         1 <0>         0.0577
     33 H3         -0.5184    1.8173   -0.8301 H         1 <0>         0.1023
     34 H4         -0.4911    1.7999    0.9496 H         1 <0>         0.0576
     35 H5          1.1928    1.2273    2.0386 H         1 <0>         0.1338
     36 H6          2.3257    0.1049    3.9099 H         1 <0>         0.1312
     37 H7          1.3698   -3.7040    2.1916 H         1 <0>         0.1361
     38 H8          0.2303   -2.5719    0.3300 H         1 <0>         0.1379
     39 H9          4.1982   -5.6663    8.0929 H         1 <0>         0.1367
     40 H10         3.2012   -7.7958    8.8259 H         1 <0>         0.1455
     41 H11         1.2031   -8.6804    7.7162 H         1 <0>         0.1642
     42 H12        -0.2873   -7.2945    4.7860 H         1 <0>         0.4141
     43 H13        -2.5351   -9.5669    6.1958 H         1 <0>         0.4502
     44 H14        -1.5742   -8.0866    3.8872 H         1 <0>         0.4440
     45 H15        -5.7370   -9.8869    3.2521 H         1 <0>         0.0665
     46 H16        -4.6950  -11.2592    2.8060 H         1 <0>         0.0664
     47 H17        -5.6791  -11.3337    4.2873 H         1 <0>         0.1102
@<TRIPOS>BOND
     1    1    2 1
     2    1   32 1
     3    1   33 1
     4    1   34 1
     5    2    3 1
     6    3    8 ar
     7    3    4 ar
     8    4    5 ar
     9    4   35 1
    10    5    6 ar
    11    5   36 1
    12    6    7 ar
    13    6    9 1
    14    7    8 ar
    15    7   37 1
    16    8   38 1
    17    9   14 2
    18    9   10 1
    19   10   21 1
    20   10   11 2
    21   11   12 1
    22   11   15 1
    23   12   13 1
    24   12   14 1
    25   15   20 ar
    26   15   16 ar
    27   16   17 ar
    28   16   39 1
    29   17   18 ar
    30   17   40 1
    31   18   19 ar
    32   18   41 1
    33   19   20 ar
    34   19   23 1
    35   20   21 1
    36   21   22 2
    37   23   24 am
    38   23   42 1
    39   24   25 2
    40   24   26 am
    41   26   27 1
    42   26   43 1
    43   27   28 am
    44   27   44 1
    45   28   29 2
    46   28   30 1
    47   30   31 1
    48   31   45 1
    49   31   46 1
    50   31   47 1
@<TRIPOS>MOLECULE
CHEMBL362109
   47    50     0     0     0
SMALL
USER_CHARGES

@<TRIPOS>ATOM
      1 C1         -0.0003    1.4524   -0.0378 C.3       1 <0>         0.0237
      2 O1          0.0182    0.0235   -0.0328 O.3       1 <0>        -0.3115
      3 C2          0.6163   -0.5889   -1.0869 C.ar      1 <0>         0.1524
      4 C3          1.1792    0.1737   -2.1030 C.ar      1 <0>        -0.2104
      5 C4          1.7873   -0.4433   -3.1739 C.ar      1 <0>        -0.0511
      6 C5          1.8375   -1.8386   -3.2376 C.ar      1 <0>        -0.1029
      7 C6          1.2700   -2.6017   -2.2134 C.ar      1 <0>        -0.0253
      8 C7          0.6686   -1.9763   -1.1435 C.ar      1 <0>        -0.1498
      9 C8          2.4873   -2.5040   -4.3828 C.2       1 <0>         0.2444
     10 C9          3.3701   -3.5734   -4.3212 C.2       1 <0>        -0.3325
     11 C10         3.7463   -3.8851   -5.7025 C.2       1 <0>         0.1271
     12 N1          3.1121   -3.0420   -6.4792 N.2       1 <0>        -0.2334
     13 H1          1.7611   -1.4777   -6.0400 H         1 <0>         0.4487
     14 N2          2.3280   -2.1869   -5.6985 N.pl3     1 <0>        -0.4652
     15 C11         4.6923   -5.0278   -5.6612 C.ar      1 <0>         0.0441
     16 C12         5.3511   -5.7167   -6.6716 C.ar      1 <0>        -0.1067
     17 C13         6.1982   -6.7679   -6.3622 C.ar      1 <0>        -0.0598
     18 C14         6.3983   -7.1435   -5.0496 C.ar      1 <0>        -0.1297
     19 C15         5.7497   -6.4680   -4.0211 C.ar      1 <0>         0.2406
     20 C16         4.8903   -5.4031   -4.3209 C.ar      1 <0>        -0.1933
     21 C17         4.0836   -4.5207   -3.4539 C.2       1 <0>         0.4925
     22 O2          4.0210   -4.5695   -2.2398 O.2       1 <0>        -0.4472
     23 N3          5.9532   -6.8496   -2.6979 N.am      1 <0>        -0.6750
     24 C18         7.0891   -7.4844   -2.3467 C.2       1 <0>         0.7181
     25 O3          7.9793   -7.6329   -3.1613 O.2       1 <0>        -0.5430
     26 N4          7.2381   -7.9546   -1.0925 N.am      1 <0>        -0.5202
     27 N5          6.2123   -7.7836   -0.1537 N.am      1 <0>        -0.5033
     28 C19         6.3613   -8.2538    1.1005 C.2       1 <0>         0.6601
     29 O4          5.4716   -8.1054    1.9147 O.2       1 <0>        -0.5441
     30 O5          7.4960   -8.8880    1.4513 O.3       1 <0>        -0.3638
     31 C20         7.5858   -9.3602    2.7971 C.3       1 <0>         0.0525
     32 H2          1.0224    1.8290   -0.0536 H         1 <0>         0.0590
     33 H3         -0.5314    1.8058   -0.9217 H         1 <0>         0.0587
     34 H4         -0.5062    1.8123    0.8581 H         1 <0>         0.1045
     35 H5          1.1396    1.2519   -2.0531 H         1 <0>         0.1368
     36 H6          2.2242    0.1501   -3.9634 H         1 <0>         0.1291
     37 H7          1.3067   -3.6802   -2.2586 H         1 <0>         0.1383
     38 H8          0.2338   -2.5651   -0.3495 H         1 <0>         0.1415
     39 H9          5.2018   -5.4317   -7.7026 H         1 <0>         0.1395
     40 H10         6.7059   -7.2979   -7.1545 H         1 <0>         0.1445
     41 H11         7.0605   -7.9651   -4.8200 H         1 <0>         0.1628
     42 H12         5.2776   -6.6586   -2.0286 H         1 <0>         0.4133
     43 H13         8.0556   -8.4115   -0.8397 H         1 <0>         0.4496
     44 H14         5.3948   -7.3267   -0.4064 H         1 <0>         0.4440
     45 H15         7.4961   -8.5188    3.4842 H         1 <0>         0.0662
     46 H16         6.7820  -10.0716    2.9869 H         1 <0>         0.0662
     47 H17         8.5477   -9.8505    2.9466 H         1 <0>         0.1100
@<TRIPOS>BOND
     1    1    2 1
     2    1   32 1
     3    1   33 1
     4    1   34 1
     5    2    3 1
     6    3    8 ar
     7    3    4 ar
     8    4    5 ar
     9    4   35 1
    10    5    6 ar
    11    5   36 1
    12    6    7 ar
    13    6    9 1
    14    7    8 ar
    15    7   37 1
    16    8   38 1
    17    9   10 2
    18    9   14 1
    19   10   21 1
    20   10   11 1
    21   11   15 1
    22   11   12 2
    23   12   14 1
    24   13   14 1
    25   15   20 ar
    26   15   16 ar
    27   16   17 ar
    28   16   39 1
    29   17   18 ar
    30   17   40 1
    31   18   19 ar
    32   18   41 1
    33   19   20 ar
    34   19   23 1
    35   20   21 1
    36   21   22 2
    37   23   24 am
    38   23   42 1
    39   24   25 2
    40   24   26 am
    41   26   27 1
    42   26   43 1
    43   27   28 am
    44   27   44 1
    45   28   29 2
    46   28   30 1
    47   30   31 1
    48   31   45 1
    49   31   46 1
    50   31   47 1
@<TRIPOS>MOLECULE
CHEMBL603097
   31    33     0     0     0
SMALL
USER_CHARGES

@<TRIPOS>ATOM
      1 C1         -0.0184    1.5028    0.0103 C.3       1 <0>        -0.0814
      2 C2          0.0021   -0.0041    0.0020 C.2       1 <0>         0.1236
      3 C3          0.0084   -0.8593   -1.1819 C.ar      1 <0>        -0.2293
      4 C4         -0.0014   -0.6081   -2.5561 C.ar      1 <0>         0.2402
      5 C5          0.0105   -1.7169   -3.4259 C.ar      1 <0>        -0.1218
      6 C6          0.0023   -1.5435   -4.8201 C.ar      1 <0>        -0.1196
      7 C7          0.0146   -2.6379   -5.6360 C.ar      1 <0>         0.1112
      8 C8          0.0347   -3.9289   -5.0989 C.ar      1 <0>        -0.1441
      9 C9          0.0426   -4.1294   -3.7545 C.ar      1 <0>        -0.0720
     10 C10         0.0314   -3.0257   -2.8799 C.ar      1 <0>         0.1864
     11 N1          0.0405   -3.2092   -1.5570 N.ar      1 <0>        -0.5064
     12 C11         0.0294   -2.1928   -0.7117 C.ar      1 <0>         0.3559
     13 N2          0.0351   -2.1193    0.6580 N.pl3     1 <0>        -0.5076
     14 H1          0.0488   -2.8791    1.2609 H         1 <0>         0.4475
     15 N3          0.0230   -0.7773    1.0481 N.2       1 <0>        -0.2255
     16 O1          0.0067   -2.4709   -6.9853 O.3       1 <0>        -0.3143
     17 C12         0.0203   -3.6547   -7.7856 C.3       1 <0>         0.0241
     18 O2         -0.0220    0.6583   -3.0363 O.3       1 <0>        -0.3248
     19 C13         1.2412    1.2834   -3.2720 C.3       1 <0>         0.0342
     20 H2          1.0042    1.8801    0.0026 H         1 <0>         0.0853
     21 H3         -0.5455    1.8639   -0.8728 H         1 <0>         0.0912
     22 H4         -0.5286    1.8543    0.9071 H         1 <0>         0.0849
     23 H5         -0.0139   -0.5502   -5.2438 H         1 <0>         0.1419
     24 H6          0.0438   -4.7805   -5.7631 H         1 <0>         0.1412
     25 H7          0.0575   -5.1337   -3.3577 H         1 <0>         0.1458
     26 H8          0.9195   -4.2307   -7.5670 H         1 <0>         0.0571
     27 H9         -0.8603   -4.2560   -7.5598 H         1 <0>         0.0574
     28 H10         0.0121   -3.3802   -8.8405 H         1 <0>         0.1030
     29 H11         1.8017    1.3332   -2.3384 H         1 <0>         0.0539
     30 H12         1.8035    0.7022   -4.0028 H         1 <0>         0.0549
     31 H13         1.0819    2.2916   -3.6544 H         1 <0>         0.1069
@<TRIPOS>BOND
     1    1    2 1
     2    1   20 1
     3    1   21 1
     4    1   22 1
     5    2   15 2
     6    2    3 1
     7    3   12 ar
     8    3    4 ar
     9    4    5 ar
    10    4   18 1
    11    5   10 ar
    12    5    6 ar
    13    6    7 ar
    14    6   23 1
    15    7    8 ar
    16    7   16 1
    17    8    9 ar
    18    8   24 1
    19    9   10 ar
    20    9   25 1
    21   10   11 ar
    22   11   12 ar
    23   12   13 1
    24   13   14 1
    25   13   15 1
    26   16   17 1
    27   17   26 1
    28   17   27 1
    29   17   28 1
    30   18   19 1
    31   19   29 1
    32   19   30 1
    33   19   31 1
@<TRIPOS>MOLECULE
CHEMBL603097
   31    33     0     0     0
SMALL
USER_CHARGES

@<TRIPOS>ATOM
      1 C1         -0.0184    1.5028    0.0103 C.3       1 <0>        -0.1035
      2 C2          0.0021   -0.0041    0.0020 C.2       1 <0>         0.1496
      3 C3          0.0239   -0.8272    1.1186 C.ar      1 <0>        -0.2664
      4 C4          0.0338   -0.5931    2.5078 C.ar      1 <0>         0.2486
      5 C5          0.0564   -1.7085    3.3600 C.ar      1 <0>        -0.1406
      6 C6          0.0669   -1.5566    4.7595 C.ar      1 <0>        -0.1174
      7 C7          0.0886   -2.6638    5.5548 C.ar      1 <0>         0.0992
      8 C8          0.1007   -3.9516    5.0107 C.ar      1 <0>        -0.1305
      9 C9          0.0914   -4.1602    3.6692 C.ar      1 <0>        -0.0813
     10 C10         0.0690   -3.0572    2.7888 C.ar      1 <0>         0.2246
     11 N1          0.0591   -3.2413    1.4718 N.ar      1 <0>        -0.4801
     12 C11         0.0375   -2.2113    0.6180 C.ar      1 <0>         0.3027
     13 N2          0.0235   -2.1311   -0.7043 N.2       1 <0>        -0.3080
     14 H1         -0.0214   -0.4648   -1.9969 H         1 <0>         0.4494
     15 N3         -0.0034   -0.7849   -1.0815 N.pl3     1 <0>        -0.3895
     16 O1          0.0991   -2.5122    6.9061 O.3       1 <0>        -0.3164
     17 C12         0.1218   -3.7052    7.6925 C.3       1 <0>         0.0242
     18 O2          0.0223    0.6650    3.0042 O.3       1 <0>        -0.3277
     19 C13        -1.2562    1.2522    3.2541 C.3       1 <0>         0.0321
     20 H2          1.0042    1.8801    0.0026 H         1 <0>         0.0972
     21 H3         -0.5455    1.8639   -0.8728 H         1 <0>         0.0828
     22 H4         -0.5286    1.8543    0.9071 H         1 <0>         0.0952
     23 H5          0.0583   -0.5704    5.1998 H         1 <0>         0.1393
     24 H6          0.1182   -4.8028    5.6751 H         1 <0>         0.1398
     25 H7          0.1012   -5.1665    3.2772 H         1 <0>         0.1477
     26 H8         -0.7626   -4.3028    7.4717 H         1 <0>         0.0564
     27 H9          1.0171   -4.2798    7.4553 H         1 <0>         0.0567
     28 H10         0.1282   -3.4428    8.7505 H         1 <0>         0.1014
     29 H11        -1.1226    2.2592    3.6494 H         1 <0>         0.1057
     30 H12        -1.8226    1.2991    2.3240 H         1 <0>         0.0516
     31 H13        -1.7988    0.6461    3.9796 H         1 <0>         0.0571
@<TRIPOS>BOND
     1    1    2 1
     2    1   20 1
     3    1   21 1
     4    1   22 1
     5    2    3 2
     6    2   15 1
     7    3    4 ar
     8    3   12 ar
     9    4    5 ar
    10    4   18 1
    11    5   10 ar
    12    5    6 ar
    13    6    7 ar
    14    6   23 1
    15    7    8 ar
    16    7   16 1
    17    8    9 ar
    18    8   24 1
    19    9   10 ar
    20    9   25 1
    21   10   11 ar
    22   11   12 ar
    23   12   13 2
    24   13   15 1
    25   14   15 1
    26   16   17 1
    27   17   26 1
    28   17   27 1
    29   17   28 1
    30   18   19 1
    31   19   29 1
    32   19   30 1
    33   19   31 1
@<TRIPOS>MOLECULE
CHEMBL1080569
   49    52     0     0     0
SMALL
USER_CHARGES

@<TRIPOS>ATOM
      1 C1         -0.0167    1.3781    0.0096 C.ar      1 <0>        -0.1413
      2 C2          1.1709    2.0855    0.0021 C.ar      1 <0>        -0.0581
      3 C3          2.3773    1.4107   -0.0130 C.ar      1 <0>        -0.1626
      4 C4          2.3960    0.0285   -0.0201 C.ar      1 <0>        -0.0558
      5 C5          1.2085   -0.6789   -0.0117 C.ar      1 <0>        -0.1021
      6 C6          0.0021   -0.0041    0.0020 C.ar      1 <0>        -0.0989
      7 C7         -1.2926   -0.7753    0.0107 C.3       1 <0>        -0.0998
      8 C8         -1.7450   -1.0285   -1.4288 C.3       1 <0>         0.0252
      9 H1         -0.9463   -1.5264   -1.9784 H         1 <0>         0.1563
     10 C9         -2.9907   -1.9168   -1.4231 C.3       1 <0>         0.1098
     11 N1         -3.4936   -2.0615   -2.7914 N.pl3     1 <0>        -0.6957
     12 C10        -4.6215   -2.8266   -3.0374 C.2       1 <0>         0.2386
     13 N2         -5.3781   -3.4917   -2.1827 N.2       1 <0>        -0.3428
     14 N3         -6.3876   -4.1525   -2.5583 N.2       1 <0>        -0.2181
     15 C11        -6.6934   -4.1767   -3.8492 C.2       1 <0>         0.0742
     16 S1         -5.3893   -3.1447   -4.5040 S.3       1 <0>         0.1053
     17 C12        -7.8017   -4.8599   -4.5475 C.ar      1 <0>        -0.0028
     18 C13        -7.9226   -4.7447   -5.9442 C.ar      1 <0>        -0.1073
     19 C14        -8.9315   -5.3623   -6.6109 C.ar      1 <0>        -0.0700
     20 C15        -9.8722   -6.1296   -5.9027 C.ar      1 <0>        -0.1019
     21 C16       -10.9307   -6.7856   -6.5502 C.ar      1 <0>         0.1482
     22 N4        -11.7883   -7.4932   -5.8521 N.ar      1 <0>        -0.4778
     23 C17       -11.7070   -7.6254   -4.5351 C.ar      1 <0>         0.0852
     24 C18       -10.7182   -7.0295   -3.8131 C.ar      1 <0>        -0.1480
     25 C19        -9.7597   -6.2532   -4.4924 C.ar      1 <0>        -0.0265
     26 C20        -8.7106   -5.6139   -3.8217 C.ar      1 <0>        -0.0478
     27 N5         -2.0599    0.2523   -2.0756 N.4       1 <0>        -0.6405
     28 C21         3.6720    2.1819   -0.0222 C.3       1 <0>         0.5036
     29 F1          4.0857    2.4144    1.2938 F         1 <0>        -0.1687
     30 F2          4.6506    1.4423   -0.6949 F         1 <0>        -0.1714
     31 F3          3.4816    3.4050   -0.6742 F         1 <0>        -0.1728
     32 H2         -0.9591    1.9053    0.0259 H         1 <0>         0.1372
     33 H3          1.1563    3.1654    0.0076 H         1 <0>         0.1472
     34 H4          3.3385   -0.4987   -0.0326 H         1 <0>         0.1480
     35 H5          1.2231   -1.7588   -0.0179 H         1 <0>         0.1452
     36 H6         -1.1443   -1.7285    0.5180 H         1 <0>         0.1336
     37 H7         -2.0551   -0.1993    0.5352 H         1 <0>         0.1112
     38 H8         -2.7351   -2.8985   -1.0242 H         1 <0>         0.1207
     39 H9         -3.7596   -1.4603   -0.7997 H         1 <0>         0.1036
     40 H10        -3.0366   -1.6214   -3.5252 H         1 <0>         0.4126
     41 H11        -7.2028   -4.1565   -6.4940 H         1 <0>         0.1294
     42 H12        -9.0112   -5.2637   -7.6835 H         1 <0>         0.1457
     43 H13       -11.0398   -6.7080   -7.6219 H         1 <0>         0.1693
     44 H14       -12.4459   -8.2220   -4.0209 H         1 <0>         0.1600
     45 H15       -10.6703   -7.1497   -2.7409 H         1 <0>         0.1448
     46 H16        -8.6128   -5.7037   -2.7499 H         1 <0>         0.1471
     47 H17        -2.7994    0.7132   -1.5668 H         1 <0>         0.4382
     48 H18        -1.2384    0.8381   -2.0794 H         1 <0>         0.4388
     49 H19        -2.3583    0.0853   -3.0249 H         1 <0>         0.4319
@<TRIPOS>BOND
     1    1    6 ar
     2    1    2 ar
     3    1   32 1
     4    2    3 ar
     5    2   33 1
     6    3    4 ar
     7    3   28 1
     8    4    5 ar
     9    4   34 1
    10    5    6 ar
    11    5   35 1
    12    6    7 1
    13    7    8 1
    14    7   36 1
    15    7   37 1
    16    8    9 1
    17    8   10 1
    18    8   27 1
    19   10   11 1
    20   10   38 1
    21   10   39 1
    22   11   12 1
    23   11   40 1
    24   12   16 1
    25   12   13 2
    26   13   14 1
    27   14   15 2
    28   15   16 1
    29   15   17 1
    30   17   26 ar
    31   17   18 ar
    32   18   19 ar
    33   18   41 1
    34   19   20 ar
    35   19   42 1
    36   20   25 ar
    37   20   21 ar
    38   21   22 ar
    39   21   43 1
    40   22   23 ar
    41   23   24 ar
    42   23   44 1
    43   24   25 ar
    44   24   45 1
    45   25   26 ar
    46   26   46 1
    47   27   47 1
    48   27   48 1
    49   27   49 1
    50   28   29 1
    51   28   30 1
    52   28   31 1
@<TRIPOS>MOLECULE
CHEMBL180814
   66    69     0     0     0
SMALL
USER_CHARGES

@<TRIPOS>ATOM
      1 C1          0.7667    2.4073    0.5678 C.3       1 <0>        -0.1441
      2 C2          0.6739    0.9000    0.3221 C.3       1 <0>        -0.0036
      3 C3          1.4629    0.5392   -0.9382 C.3       1 <0>        -0.1449
      4 C4          1.2493    0.1621    1.5034 C.2       1 <0>        -0.2233
      5 C5          2.5483    0.2679    1.9828 C.2       1 <0>         0.1050
      6 N1          2.6845   -0.5221    3.0223 N.2       1 <0>        -0.2923
      7 N2          1.4688   -1.1744    3.2568 N.pl3     1 <0>        -0.3421
      8 C6          0.5751   -0.7416    2.3128 C.2       1 <0>         0.3001
      9 N3         -0.6846   -1.2024    2.3020 N.2       1 <0>        -0.5356
     10 C7         -1.0939   -2.0790    3.2001 C.2       1 <0>         0.4034
     11 C8         -0.2121   -2.5442    4.1857 C.2       1 <0>        -0.2443
     12 C9          1.0750   -2.0884    4.2005 C.2       1 <0>         0.4651
     13 N4          1.9624   -2.5290    5.1612 N.pl3     1 <0>        -0.6706
     14 C10         3.1518   -3.1558    4.7790 C.ar      1 <0>         0.2421
     15 C11         3.3794   -3.4616    3.4432 C.ar      1 <0>        -0.1758
     16 C12         4.5557   -4.0810    3.0691 C.ar      1 <0>         0.0229
     17 C13         5.5061   -4.3972    4.0225 C.ar      1 <0>        -0.7070
     18 C14         5.2825   -4.0946    5.3532 C.ar      1 <0>         0.0208
     19 C15         4.1113   -3.4692    5.7334 C.ar      1 <0>        -0.1808
     20 S1          7.0052   -5.1880    3.5408 S.o2      1 <0>         2.6943
     21 O1          7.4921   -5.8693    4.6888 O.2       1 <0>        -0.9514
     22 O2          6.7367   -5.8556    2.3155 O.2       1 <0>        -0.9548
     23 N5          8.1007   -3.9940    3.1990 N.pl3     1 <0>        -1.0049
     24 C16         8.9700   -3.4729    4.2568 C.3       1 <0>         0.0910
     25 C17         8.2005   -3.4589    1.8389 C.3       1 <0>         0.0810
     26 O3         -2.3713   -2.5305    3.1696 O.3       1 <0>        -0.2829
     27 C18        -3.2171   -2.0152    2.1395 C.3       1 <0>         0.0822
     28 C19        -3.9209   -0.7528    2.6413 C.3       1 <0>        -0.1356
     29 C20        -4.8265   -0.2011    1.5383 C.3       1 <0>        -0.1370
     30 C21        -5.8722   -1.2531    1.1632 C.3       1 <0>         0.0223
     31 C22        -5.1683   -2.5155    0.6614 C.3       1 <0>        -0.1369
     32 C23        -4.2628   -3.0672    1.7644 C.3       1 <0>        -0.1182
     33 N6         -6.7416   -0.7234    0.1043 N.4       1 <0>        -0.6362
     34 H1          1.8110    2.6904    0.6994 H         1 <0>         0.0574
     35 H2          0.3505    2.9410   -0.2867 H         1 <0>         0.0577
     36 H3          0.2046    2.6643    1.4656 H         1 <0>         0.0511
     37 H4         -0.3704    0.6169    0.1904 H         1 <0>         0.0743
     38 H5          2.5072    0.8223   -0.8065 H         1 <0>         0.0575
     39 H6          1.3968   -0.5346   -1.1132 H         1 <0>         0.0524
     40 H7          1.0467    1.0729   -1.7926 H         1 <0>         0.0579
     41 H8          3.3212    0.8976    1.5676 H         1 <0>         0.1970
     42 H9         -0.5454   -3.2611    4.9214 H         1 <0>         0.1764
     43 H10         1.7607   -2.4036    6.1017 H         1 <0>         0.4316
     44 H11         2.6373   -3.2156    2.6982 H         1 <0>         0.1184
     45 H12         4.7333   -4.3190    2.0307 H         1 <0>         0.1421
     46 H13         6.0267   -4.3432    6.0954 H         1 <0>         0.1473
     47 H14         3.9395   -3.2285    6.7721 H         1 <0>         0.1392
     48 H15         9.8905   -4.0558    4.2907 H         1 <0>         0.0642
     49 H16         9.2081   -2.4295    4.0503 H         1 <0>         0.0757
     50 H17         8.4583   -3.5457    5.2164 H         1 <0>         0.0716
     51 H18         7.5204   -2.6141    1.7300 H         1 <0>         0.0555
     52 H19         9.2224   -3.1291    1.6523 H         1 <0>         0.0807
     53 H20         7.9328   -4.2355    1.1224 H         1 <0>         0.0841
     54 H21        -2.6158   -1.7721    1.2634 H         1 <0>         0.1019
     55 H22        -4.5222   -0.9959    3.5174 H         1 <0>         0.0845
     56 H23        -3.1759   -0.0033    2.9085 H         1 <0>         0.0925
     57 H24        -5.3279    0.6982    1.8958 H         1 <0>         0.0955
     58 H25        -4.2252    0.0420    0.6623 H         1 <0>         0.0934
     59 H26        -6.4734   -1.4962    2.0393 H         1 <0>         0.1455
     60 H27        -5.9133   -3.2650    0.3942 H         1 <0>         0.0993
     61 H28        -4.5671   -2.2724   -0.2146 H         1 <0>         0.0931
     62 H29        -3.7614   -3.9666    1.4069 H         1 <0>         0.0965
     63 H30        -4.8641   -3.3103    2.6404 H         1 <0>         0.0886
     64 H31        -6.1850   -0.4984   -0.7067 H         1 <0>         0.4342
     65 H32        -7.4312   -1.4172   -0.1431 H         1 <0>         0.4375
     66 H33        -7.2058    0.1091    0.4352 H         1 <0>         0.4376
@<TRIPOS>BOND
     1    1    2 1
     2    1   34 1
     3    1   35 1
     4    1   36 1
     5    2    3 1
     6    2    4 1
     7    2   37 1
     8    3   38 1
     9    3   39 1
    10    3   40 1
    11    4    8 2
    12    4    5 1
    13    5    6 2
    14    5   41 1
    15    6    7 1
    16    7   12 1
    17    7    8 1
    18    8    9 1
    19    9   10 2
    20   10   11 1
    21   10   26 1
    22   11   12 2
    23   11   42 1
    24   12   13 1
    25   13   14 1
    26   13   43 1
    27   14   19 ar
    28   14   15 ar
    29   15   16 ar
    30   15   44 1
    31   16   17 ar
    32   16   45 1
    33   17   18 ar
    34   17   20 1
    35   18   19 ar
    36   18   46 1
    37   19   47 1
    38   20   21 2
    39   20   22 2
    40   20   23 1
    41   23   24 1
    42   23   25 1
    43   24   48 1
    44   24   49 1
    45   24   50 1
    46   25   51 1
    47   25   52 1
    48   25   53 1
    49   26   27 1
    50   27   32 1
    51   27   28 1
    52   27   54 1
    53   28   29 1
    54   28   55 1
    55   28   56 1
    56   29   30 1
    57   29   57 1
    58   29   58 1
    59   30   31 1
    60   30   33 1
    61   30   59 1
    62   31   32 1
    63   31   60 1
    64   31   61 1
    65   32   62 1
    66   32   63 1
    67   33   64 1
    68   33   65 1
    69   33   66 1
@<TRIPOS>MOLECULE
CHEMBL319467
   50    53     0     0     0
SMALL
USER_CHARGES

@<TRIPOS>ATOM
      1 C1          0.1668    1.2429   -0.3217 C.ar      1 <0>        -0.1702
      2 C2          1.3451    1.9307   -0.1073 C.ar      1 <0>         0.0044
      3 C3          2.3520    1.3609    0.6502 C.ar      1 <0>        -0.6986
      4 C4          2.1830    0.1013    1.1954 C.ar      1 <0>         0.0047
      5 C5          1.0072   -0.5919    0.9848 C.ar      1 <0>        -0.1420
      6 C6         -0.0064   -0.0223    0.2248 C.ar      1 <0>         0.2325
      7 N1         -1.1980   -0.7210    0.0101 N.pl3     1 <0>        -0.6337
      8 C7         -1.1808   -2.1027   -0.1021 C.ar      1 <0>         0.6156
      9 N2         -2.3306   -2.7508   -0.1927 N.ar      1 <0>        -0.5802
     10 C8         -2.3525   -4.0748   -0.3015 C.ar      1 <0>         0.3391
     11 C9         -1.1372   -4.7804   -0.3193 C.ar      1 <0>        -0.1012
     12 C10         0.0578   -4.0506   -0.2206 C.ar      1 <0>         0.4740
     13 N3         -0.0111   -2.7299   -0.1205 N.ar      1 <0>        -0.6058
     14 O1          1.2565   -4.6815   -0.2328 O.3       1 <0>        -0.2730
     15 C11         2.4222   -3.8618   -0.1277 C.3       1 <0>         0.0667
     16 C12         3.6712   -4.7449   -0.1588 C.3       1 <0>        -0.0865
     17 C13         3.6933   -5.6409    1.0812 C.3       1 <0>        -0.1146
     18 C14         4.9423   -6.5240    1.0500 C.3       1 <0>        -0.1194
     19 C15         6.1914   -5.6406    1.0369 C.3       1 <0>        -0.1220
     20 C16         6.1693   -4.7446   -0.2031 C.3       1 <0>        -0.1177
     21 C17         4.9203   -3.8614   -0.1720 C.3       1 <0>        -0.1129
     22 N4         -1.4414   -6.0966   -0.4367 N.2       1 <0>        -0.4434
     23 H1         -4.2959   -4.8527   -0.4292 H         1 <0>         0.4341
     24 C18        -2.7333   -6.2393   -0.4907 C.2       1 <0>         0.2545
     25 N5         -3.3407   -5.0203   -0.4111 N.pl3     1 <0>        -0.5789
     26 S1          3.8539    2.2416    0.9208 S.o2      1 <0>         2.7019
     27 O2          4.8496    1.2686    1.2057 O.2       1 <0>        -0.9626
     28 O3          3.9791    3.1692   -0.1483 O.2       1 <0>        -0.9621
     29 N6          3.6560    3.1344    2.3014 N.pl3     1 <0>        -1.2490
     30 H2         -0.6208    1.6902   -0.9100 H         1 <0>         0.1382
     31 H3          1.4804    2.9144   -0.5319 H         1 <0>         0.1470
     32 H4          2.9715   -0.3410    1.7862 H         1 <0>         0.1443
     33 H5          0.8762   -1.5758    1.4103 H         1 <0>         0.1433
     34 H6         -2.0369   -0.2391   -0.0604 H         1 <0>         0.4303
     35 H7          2.4510   -3.1622   -0.9630 H         1 <0>         0.0738
     36 H8          2.3929   -3.3069    0.8101 H         1 <0>         0.0727
     37 H9          3.6554   -5.3651   -1.0550 H         1 <0>         0.0827
     38 H10         3.7091   -5.0207    1.9774 H         1 <0>         0.0617
     39 H11         2.8034   -6.2703    1.0905 H         1 <0>         0.0692
     40 H12         4.9581   -7.1624    1.9334 H         1 <0>         0.0624
     41 H13         4.9265   -7.1443    0.1538 H         1 <0>         0.0624
     42 H14         6.2072   -5.0204    1.9331 H         1 <0>         0.0624
     43 H15         7.0812   -6.2697    1.0147 H         1 <0>         0.0617
     44 H16         7.0592   -4.1152   -0.2125 H         1 <0>         0.0662
     45 H17         6.1535   -5.3648   -1.0993 H         1 <0>         0.0627
     46 H18         4.9045   -3.2231   -1.0554 H         1 <0>         0.0666
     47 H19         4.9361   -3.2412    0.7242 H         1 <0>         0.0691
     48 H20        -3.2490   -7.1835   -0.5850 H         1 <0>         0.2311
     49 H21         4.4209    3.3346    2.8633 H         1 <0>         0.4215
     50 H22         2.7752    3.4572    2.5482 H         1 <0>         0.4169
@<TRIPOS>BOND
     1    1    6 ar
     2    1    2 ar
     3    1   30 1
     4    2    3 ar
     5    2   31 1
     6    3    4 ar
     7    3   26 1
     8    4    5 ar
     9    4   32 1
    10    5    6 ar
    11    5   33 1
    12    6    7 1
    13    7    8 1
    14    7   34 1
    15    8    9 ar
    16    8   13 ar
    17    9   10 ar
    18   10   25 1
    19   10   11 ar
    20   11   12 ar
    21   11   22 1
    22   12   14 1
    23   12   13 ar
    24   14   15 1
    25   15   16 1
    26   15   35 1
    27   15   36 1
    28   16   21 1
    29   16   17 1
    30   16   37 1
    31   17   18 1
    32   17   38 1
    33   17   39 1
    34   18   19 1
    35   18   40 1
    36   18   41 1
    37   19   20 1
    38   19   42 1
    39   19   43 1
    40   20   21 1
    41   20   44 1
    42   20   45 1
    43   21   46 1
    44   21   47 1
    45   22   24 2
    46   23   25 1
    47   24   48 1
    48   24   25 1
    49   26   27 2
    50   26   28 2
    51   26   29 1
    52   29   49 1
    53   29   50 1
@<TRIPOS>MOLECULE
CHEMBL186510
   33    34     0     0     0
SMALL
USER_CHARGES

@<TRIPOS>ATOM
      1 C1         -0.0154    1.5216    0.0249 C.3       1 <0>        -0.1487
      2 C2          0.0037   -0.0081    0.0055 C.3       1 <0>        -0.0021
      3 C3          0.7454   -0.5247    1.2400 C.3       1 <0>        -0.1487
      4 C4         -1.4107   -0.5283    0.0151 C.2       1 <0>        -0.2005
      5 C5         -2.0505   -1.3097   -0.8888 C.2       1 <0>         0.0604
      6 N1         -3.3071   -1.6219   -0.6294 N.2       1 <0>        -0.5144
      7 C6         -3.9039   -1.1896    0.4602 C.2       1 <0>         0.2794
      8 S1         -2.7029   -0.2915    1.2242 S.3       1 <0>         0.1170
      9 N2         -5.2081   -1.4218    0.8808 N.am      1 <0>        -0.6279
     10 C7         -6.0331   -2.1793    0.1311 C.2       1 <0>         0.6989
     11 O1         -5.6365   -2.6594   -0.9132 O.2       1 <0>        -0.5071
     12 N3         -7.2978   -2.4045    0.5389 N.am      1 <0>        -0.6793
     13 C8         -8.1834   -3.1090   -0.2842 C.ar      1 <0>         0.1564
     14 C9         -9.5289   -2.7664   -0.3128 C.ar      1 <0>        -0.1436
     15 C10       -10.4003   -3.4634   -1.1266 C.ar      1 <0>        -0.1018
     16 C11        -9.9344   -4.5017   -1.9122 C.ar      1 <0>        -0.1325
     17 C12        -8.5952   -4.8453   -1.8860 C.ar      1 <0>        -0.1010
     18 C13        -7.7176   -4.1485   -1.0786 C.ar      1 <0>        -0.1182
     19 H1          1.0076    1.8978    0.0180 H         1 <0>         0.0660
     20 H2         -0.5438    1.8896   -0.8545 H         1 <0>         0.0601
     21 H3         -0.5235    1.8672    0.9252 H         1 <0>         0.0568
     22 H4          0.5118   -0.3538   -0.8947 H         1 <0>         0.0974
     23 H5          0.7590   -1.6145    1.2261 H         1 <0>         0.0601
     24 H6          1.7684   -0.1484    1.2330 H         1 <0>         0.0660
     25 H7          0.2373   -0.1790    2.1402 H         1 <0>         0.0568
     26 H8         -1.5548   -1.6611   -1.7817 H         1 <0>         0.1744
     27 H9         -5.5245   -1.0388    1.7139 H         1 <0>         0.4230
     28 H10        -7.5941   -2.0783    1.4030 H         1 <0>         0.4087
     29 H11        -9.8935   -1.9561    0.3011 H         1 <0>         0.1255
     30 H12       -11.4468   -3.1975   -1.1493 H         1 <0>         0.1274
     31 H13       -10.6180   -5.0456   -2.5472 H         1 <0>         0.1243
     32 H14        -8.2344   -5.6569   -2.5004 H         1 <0>         0.1267
     33 H15        -6.6711   -4.4146   -1.0617 H         1 <0>         0.1405
@<TRIPOS>BOND
     1    1    2 1
     2    1   19 1
     3    1   20 1
     4    1   21 1
     5    2    3 1
     6    2    4 1
     7    2   22 1
     8    3   23 1
     9    3   24 1
    10    3   25 1
    11    4    8 1
    12    4    5 2
    13    5    6 1
    14    5   26 1
    15    6    7 2
    16    7    8 1
    17    7    9 1
    18    9   10 am
    19    9   27 1
    20   10   11 2
    21   10   12 am
    22   12   13 1
    23   12   28 1
    24   13   18 ar
    25   13   14 ar
    26   14   15 ar
    27   14   29 1
    28   15   16 ar
    29   15   30 1
    30   16   17 ar
    31   16   31 1
    32   17   18 ar
    33   17   32 1
    34   18   33 1
@<TRIPOS>MOLECULE
CHEMBL183950
   55    59     0     0     0
SMALL
USER_CHARGES

@<TRIPOS>ATOM
      1 C1          0.5522    0.8453   -0.6620 C.3       1 <0>         0.0237
      2 O1          0.4721   -0.5800   -0.5987 O.3       1 <0>        -0.3114
      3 C2         -0.7695   -1.1250   -0.5257 C.ar      1 <0>         0.1529
      4 C3         -1.8885   -0.3011   -0.5210 C.ar      1 <0>        -0.2104
      5 C4         -3.1498   -0.8497   -0.4466 C.ar      1 <0>        -0.0509
      6 C5         -3.3032   -2.2371   -0.3762 C.ar      1 <0>        -0.1032
      7 C6         -2.1750   -3.0620   -0.3816 C.ar      1 <0>        -0.0250
      8 C7         -0.9176   -2.5051   -0.4615 C.ar      1 <0>        -0.1499
      9 C8         -4.6521   -2.8291   -0.2959 C.2       1 <0>         0.2447
     10 C9         -5.0569   -3.8420    0.5627 C.2       1 <0>        -0.3325
     11 C10        -6.4719   -4.0923    0.2765 C.2       1 <0>         0.1267
     12 N1         -6.8276   -3.2702   -0.6796 N.2       1 <0>        -0.2331
     13 N2         -5.7343   -2.4794   -1.0466 N.pl3     1 <0>        -0.4650
     14 H1         -5.7441   -1.7912   -1.7301 H         1 <0>         0.4488
     15 C11        -6.9270   -5.1744    1.1844 C.ar      1 <0>         0.0453
     16 C12        -8.1611   -5.7938    1.3353 C.ar      1 <0>        -0.1077
     17 C13        -8.3279   -6.7980    2.2747 C.ar      1 <0>        -0.0593
     18 C14        -7.2733   -7.1947    3.0711 C.ar      1 <0>        -0.1354
     19 C15        -6.0284   -6.5885    2.9381 C.ar      1 <0>         0.2402
     20 C16        -5.8466   -5.5724    1.9911 C.ar      1 <0>        -0.1946
     21 C17        -4.6619   -4.7658    1.6347 C.2       1 <0>         0.4922
     22 O2         -3.5576   -4.8509    2.1382 O.2       1 <0>        -0.4471
     23 N3         -4.9665   -6.9903    3.7437 N.am      1 <0>        -0.6714
     24 C18        -4.9856   -8.2049    4.3276 C.2       1 <0>         0.7200
     25 O3         -5.8761   -8.9906    4.0673 O.2       1 <0>        -0.5434
     26 N4         -4.0175   -8.5485    5.2000 N.am      1 <0>        -0.5300
     27 N5         -2.9912   -7.6431    5.4999 N.am      1 <0>        -0.5356
     28 C19        -2.0231   -7.9867    6.3723 C.2       1 <0>         0.7176
     29 O4         -1.1325   -7.2009    6.6326 O.2       1 <0>        -0.5441
     30 N6         -2.0422   -9.2013    6.9562 N.am      1 <0>        -0.6806
     31 C20        -1.0987   -9.5199    7.9395 C.ar      1 <0>         0.1566
     32 C21        -0.6264  -10.8206    8.0551 C.ar      1 <0>        -0.1439
     33 C22         0.3047  -11.1318    9.0266 C.ar      1 <0>        -0.0992
     34 C23         0.7662  -10.1499    9.8839 C.ar      1 <0>        -0.1323
     35 C24         0.2976   -8.8538    9.7715 C.ar      1 <0>        -0.0992
     36 C25        -0.6286   -8.5347    8.7978 C.ar      1 <0>        -0.1192
     37 H2          1.5978    1.1484   -0.7169 H         1 <0>         0.1046
     38 H3          0.0242    1.2000   -1.5471 H         1 <0>         0.0586
     39 H4          0.0958    1.2749    0.2298 H         1 <0>         0.0592
     40 H5         -1.7690    0.7709   -0.5754 H         1 <0>         0.1369
     41 H6         -4.0190   -0.2086   -0.4423 H         1 <0>         0.1291
     42 H7         -2.2890   -4.1346   -0.3274 H         1 <0>         0.1378
     43 H8         -0.0454   -3.1420   -0.4699 H         1 <0>         0.1413
     44 H9         -8.9939   -5.4911    0.7180 H         1 <0>         0.1394
     45 H10        -9.2911   -7.2739    2.3848 H         1 <0>         0.1444
     46 H11        -7.4149   -7.9785    3.8005 H         1 <0>         0.1675
     47 H12        -4.2129   -6.3961    3.8848 H         1 <0>         0.4153
     48 H13        -4.0312   -9.4226    5.6202 H         1 <0>         0.4369
     49 H14        -2.9775   -6.7689    5.0797 H         1 <0>         0.4377
     50 H15        -2.7098   -9.8546    6.6948 H         1 <0>         0.4039
     51 H16        -0.9871  -11.5881    7.3864 H         1 <0>         0.1262
     52 H17         0.6723  -12.1433    9.1171 H         1 <0>         0.1281
     53 H18         1.4941  -10.3958   10.6429 H         1 <0>         0.1249
     54 H19         0.6595   -8.0892   10.4430 H         1 <0>         0.1274
     55 H20        -0.9906   -7.5212    8.7075 H         1 <0>         0.1364
@<TRIPOS>BOND
     1    1    2 1
     2    1   37 1
     3    1   38 1
     4    1   39 1
     5    2    3 1
     6    3    8 ar
     7    3    4 ar
     8    4    5 ar
     9    4   40 1
    10    5    6 ar
    11    5   41 1
    12    6    7 ar
    13    6    9 1
    14    7    8 ar
    15    7   42 1
    16    8   43 1
    17    9   13 1
    18    9   10 2
    19   10   21 1
    20   10   11 1
    21   11   12 2
    22   11   15 1
    23   12   13 1
    24   13   14 1
    25   15   20 ar
    26   15   16 ar
    27   16   17 ar
    28   16   44 1
    29   17   18 ar
    30   17   45 1
    31   18   19 ar
    32   18   46 1
    33   19   20 ar
    34   19   23 1
    35   20   21 1
    36   21   22 2
    37   23   24 am
    38   23   47 1
    39   24   25 2
    40   24   26 am
    41   26   27 1
    42   26   48 1
    43   27   28 am
    44   27   49 1
    45   28   29 2
    46   28   30 am
    47   30   31 1
    48   30   50 1
    49   31   36 ar
    50   31   32 ar
    51   32   33 ar
    52   32   51 1
    53   33   34 ar
    54   33   52 1
    55   34   35 ar
    56   34   53 1
    57   35   36 ar
    58   35   54 1
    59   36   55 1
@<TRIPOS>MOLECULE
CHEMBL183950
   55    59     0     0     0
SMALL
USER_CHARGES

@<TRIPOS>ATOM
      1 C1         -0.6569    1.8225    0.4762 C.3       1 <0>         0.0249
      2 O1         -0.5971    0.3972    0.3936 O.3       1 <0>        -0.3142
      3 C2          0.0979   -0.2484    1.3661 C.ar      1 <0>         0.1450
      4 C3          0.7047    0.4778    2.3823 C.ar      1 <0>        -0.2136
      5 C4          1.4107   -0.1743    3.3708 C.ar      1 <0>        -0.0420
      6 C5          1.5151   -1.5649    3.3494 C.ar      1 <0>        -0.0746
      7 C6          0.9045   -2.2913    2.3274 C.ar      1 <0>        -0.0347
      8 C7          0.1952   -1.6335    1.3450 C.ar      1 <0>        -0.1523
      9 C8          2.2736   -2.2691    4.4101 C.2       1 <0>         0.2028
     10 C9          1.9566   -3.5336    4.9613 C.2       1 <0>        -0.3128
     11 C10         2.9203   -3.8190    5.9195 C.2       1 <0>         0.1574
     12 N1          3.7796   -2.7774    5.9471 N.pl3     1 <0>        -0.4234
     13 N2          3.3653   -1.8318    5.0027 N.2       1 <0>        -0.2699
     14 H1          4.5560   -2.6993    6.5233 H         1 <0>         0.4475
     15 C11         2.6214   -5.1403    6.5221 C.ar      1 <0>         0.0151
     16 C12         3.2604   -5.8774    7.5080 C.ar      1 <0>        -0.1099
     17 C13         2.7572   -7.1138    7.8923 C.ar      1 <0>        -0.0614
     18 C14         1.6216   -7.6219    7.3022 C.ar      1 <0>        -0.1311
     19 C15         0.9623   -6.8958    6.3076 C.ar      1 <0>         0.2456
     20 C16         1.4602   -5.6540    5.9149 C.ar      1 <0>        -0.1961
     21 C17         1.0050   -4.6621    4.9147 C.2       1 <0>         0.4855
     22 O2          0.0319   -4.7577    4.1931 O.2       1 <0>        -0.4344
     23 N3         -0.1845   -7.4094    5.7113 N.am      1 <0>        -0.6708
     24 C18        -0.8977   -8.3672    6.3361 C.2       1 <0>         0.7205
     25 O3         -0.5972   -8.7115    7.4627 O.2       1 <0>        -0.5433
     26 N4         -1.9441   -8.9434    5.7119 N.am      1 <0>        -0.5288
     27 N5         -2.2904   -8.5467    4.4137 N.am      1 <0>        -0.5361
     28 C19        -3.3367   -9.1229    3.7895 C.2       1 <0>         0.7177
     29 O4         -3.6373   -8.7786    2.6628 O.2       1 <0>        -0.5425
     30 N6         -4.0500  -10.0807    4.4143 N.am      1 <0>        -0.6805
     31 C20        -5.0641  -10.7579    3.7278 C.ar      1 <0>         0.1562
     32 C21        -6.2013  -11.1788    4.4045 C.ar      1 <0>        -0.1437
     33 C22        -7.2004  -11.8469    3.7241 C.ar      1 <0>        -0.0992
     34 C23        -7.0690  -12.0973    2.3705 C.ar      1 <0>        -0.1320
     35 C24        -5.9376  -11.6799    1.6939 C.ar      1 <0>        -0.0989
     36 C25        -4.9380  -11.0055    2.3672 C.ar      1 <0>        -0.1190
     37 H2          0.3526    2.2315    0.4354 H         1 <0>         0.0577
     38 H3         -1.2402    2.2107   -0.3587 H         1 <0>         0.1023
     39 H4         -1.1287    2.1125    1.4150 H         1 <0>         0.0576
     40 H5          0.6237    1.5547    2.3982 H         1 <0>         0.1338
     41 H6          1.8827    0.3911    4.1607 H         1 <0>         0.1311
     42 H7          0.9838   -3.3682    2.3077 H         1 <0>         0.1359
     43 H8         -0.2816   -2.1957    0.5557 H         1 <0>         0.1380
     44 H9          4.1519   -5.4891    7.9780 H         1 <0>         0.1365
     45 H10         3.2612   -7.6817    8.6603 H         1 <0>         0.1453
     46 H11         1.2399   -8.5845    7.6090 H         1 <0>         0.1706
     47 H12        -0.4710   -7.0781    4.8458 H         1 <0>         0.4162
     48 H13        -2.4574   -9.6328    6.1616 H         1 <0>         0.4376
     49 H14        -1.7771   -7.8573    3.9640 H         1 <0>         0.4376
     50 H15        -3.8603  -10.3007    5.3398 H         1 <0>         0.4037
     51 H16        -6.3042  -10.9842    5.4618 H         1 <0>         0.1261
     52 H17        -8.0851  -12.1745    4.2499 H         1 <0>         0.1281
     53 H18        -7.8515  -12.6203    1.8408 H         1 <0>         0.1251
     54 H19        -5.8376  -11.8776    0.6368 H         1 <0>         0.1277
     55 H20        -4.0567  -10.6754    1.8371 H         1 <0>         0.1361
@<TRIPOS>BOND
     1    1    2 1
     2    1   37 1
     3    1   38 1
     4    1   39 1
     5    2    3 1
     6    3    8 ar
     7    3    4 ar
     8    4    5 ar
     9    4   40 1
    10    5    6 ar
    11    5   41 1
    12    6    7 ar
    13    6    9 1
    14    7    8 ar
    15    7   42 1
    16    8   43 1
    17    9   10 1
    18    9   13 2
    19   10   21 1
    20   10   11 2
    21   11   15 1
    22   11   12 1
    23   12   14 1
    24   12   13 1
    25   15   20 ar
    26   15   16 ar
    27   16   17 ar
    28   16   44 1
    29   17   18 ar
    30   17   45 1
    31   18   19 ar
    32   18   46 1
    33   19   20 ar
    34   19   23 1
    35   20   21 1
    36   21   22 2
    37   23   24 am
    38   23   47 1
    39   24   25 2
    40   24   26 am
    41   26   27 1
    42   26   48 1
    43   27   28 am
    44   27   49 1
    45   28   29 2
    46   28   30 am
    47   30   31 1
    48   30   50 1
    49   31   36 ar
    50   31   32 ar
    51   32   33 ar
    52   32   51 1
    53   33   34 ar
    54   33   52 1
    55   34   35 ar
    56   34   53 1
    57   35   36 ar
    58   35   54 1
    59   36   55 1
@<TRIPOS>MOLECULE
CHEMBL364767
   38    40     0     0     0
SMALL
USER_CHARGES

@<TRIPOS>ATOM
      1 C1          2.5992   -2.1906   -1.0694 C.3       1 <0>        -0.1099
      2 C2          1.3311   -1.6322   -0.4769 C.2       1 <0>        -0.0055
      3 C3          0.3575   -0.8529   -1.1549 C.2       1 <0>        -0.1492
      4 C4         -0.6195   -0.5611   -0.2514 C.2       1 <0>         0.1560
      5 N1         -0.2790   -1.1276    0.9354 N.pl3     1 <0>        -0.5254
      6 H1         -0.7986   -1.0771    1.7529 H         1 <0>         0.4347
      7 C5          0.9086   -1.7847    0.7913 C.2       1 <0>         0.0307
      8 N2          1.6149   -2.5365    1.8531 N.pl3     1 <0>         0.0688
      9 O1          1.1390   -2.6073    2.9623 O.2       1 <0>        -0.1760
     10 O2          2.6675   -3.0797    1.6111 O.3       1 <0>        -0.1350
     11 C6         -1.8611    0.2493   -0.5213 C.3       1 <0>        -0.1042
     12 C7          0.3964   -0.4359   -2.5755 C.ar      1 <0>         0.2985
     13 C8          0.6944   -1.3630   -3.5801 C.ar      1 <0>        -0.2614
     14 C9          0.7192   -0.9275   -4.8914 C.ar      1 <0>         0.1943
     15 N3          0.4623    0.3444   -5.1572 N.ar      1 <0>        -0.5568
     16 C10         0.1829    1.2015   -4.1860 C.ar      1 <0>         0.5632
     17 N4          0.1430    0.8260   -2.9170 N.ar      1 <0>        -0.5564
     18 N5         -0.0794    2.5232   -4.5072 N.pl3     1 <0>        -0.6369
     19 C11        -0.1541    2.9157   -5.8484 C.ar      1 <0>         0.1558
     20 C12        -0.6493    2.0375   -6.8034 C.ar      1 <0>        -0.0869
     21 C13        -0.7227    2.4272   -8.1264 C.ar      1 <0>        -0.1319
     22 C14        -0.3024    3.6923   -8.5009 C.ar      1 <0>         0.0799
     23 C15         0.1917    4.5695   -7.5503 C.ar      1 <0>        -0.1307
     24 C16         0.2615    4.1860   -6.2253 C.ar      1 <0>        -0.1203
     25 F1         -0.3742    4.0711   -9.7957 F         1 <0>        -0.1400
     26 H2          2.4025   -3.1801   -1.4820 H         1 <0>         0.0887
     27 H3          2.9517   -1.5301   -1.8615 H         1 <0>         0.0780
     28 H4          3.3607   -2.2655   -0.2930 H         1 <0>         0.0927
     29 H5         -2.6839   -0.4197   -0.7735 H         1 <0>         0.0883
     30 H6         -2.1199    0.8246    0.3676 H         1 <0>         0.0825
     31 H7         -1.6776    0.9291   -1.3534 H         1 <0>         0.1069
     32 H8          0.9005   -2.3947   -3.3364 H         1 <0>         0.1491
     33 H9          0.9460   -1.6170   -5.6911 H         1 <0>         0.1753
     34 H10        -0.2112    3.1766   -3.8026 H         1 <0>         0.4250
     35 H11        -0.9766    1.0504   -6.5118 H         1 <0>         0.1445
     36 H12        -1.1077    1.7445   -8.8694 H         1 <0>         0.1385
     37 H13         0.5190    5.5558   -7.8445 H         1 <0>         0.1396
     38 H14         0.6431    4.8720   -5.4835 H         1 <0>         0.1353
@<TRIPOS>BOND
     1    1    2 1
     2    1   26 1
     3    1   27 1
     4    1   28 1
     5    2    7 2
     6    2    3 1
     7    3    4 2
     8    3   12 1
     9    4    5 1
    10    4   11 1
    11    5    6 1
    12    5    7 1
    13    7    8 1
    14    8    9 2
    15    8   10 1
    16   11   29 1
    17   11   30 1
    18   11   31 1
    19   12   17 ar
    20   12   13 ar
    21   13   14 ar
    22   13   32 1
    23   14   15 ar
    24   14   33 1
    25   15   16 ar
    26   16   17 ar
    27   16   18 1
    28   18   19 1
    29   18   34 1
    30   19   24 ar
    31   19   20 ar
    32   20   21 ar
    33   20   35 1
    34   21   22 ar
    35   21   36 1
    36   22   23 ar
    37   22   25 1
    38   23   24 ar
    39   23   37 1
    40   24   38 1
@<TRIPOS>MOLECULE
CHEMBL318522
   33    36     0     0     0
SMALL
USER_CHARGES

@<TRIPOS>ATOM
      1 C1         -0.0163    1.3536    0.0095 C.2       1 <0>        -0.1580
      2 C2          1.1774    2.0411    0.0018 C.2       1 <0>        -0.1374
      3 C3          2.3471    1.3289   -0.0132 C.2       1 <0>        -0.1174
      4 S1          1.7524   -0.3545   -0.0166 S.3       1 <0>         0.0591
      5 C4          0.0021   -0.0041    0.0020 C.2       1 <0>        -0.1686
      6 C5          3.7391    1.8246   -0.0243 C.ar      1 <0>         0.0531
      7 C6          3.9883    3.2049   -0.0139 C.ar      1 <0>        -0.1395
      8 C7          5.2657    3.6760   -0.0239 C.ar      1 <0>        -0.0319
      9 C8          6.3416    2.7807   -0.0446 C.ar      1 <0>        -0.1796
     10 C9          6.1029    1.3924   -0.0552 C.ar      1 <0>         0.1519
     11 C10         4.7949    0.9209   -0.0391 C.ar      1 <0>        -0.1335
     12 N1          7.3294    0.7788   -0.0749 N.pl3     1 <0>        -0.5024
     13 H1          7.4784   -0.1796   -0.0860 H         1 <0>         0.4454
     14 N2          8.3310    1.7548   -0.0770 N.2       1 <0>        -0.2308
     15 C11         7.7954    2.9465   -0.0595 C.2       1 <0>         0.3158
     16 N3          8.4876    4.1627   -0.0558 N.am      1 <0>        -0.6314
     17 C12         9.8353    4.1711   -0.0709 C.2       1 <0>         0.5366
     18 O1         10.4481    3.1246   -0.0879 O.2       1 <0>        -0.4858
     19 C13        10.5807    5.4809   -0.0669 C.3       1 <0>        -0.1960
     20 C14        11.3458    5.8622   -1.3358 C.3       1 <0>        -0.1498
     21 C15        12.1095    5.4236   -0.0848 C.3       1 <0>        -0.1438
     22 H2         -0.9549    1.8877    0.0258 H         1 <0>         0.1380
     23 H3          1.1906    3.1211    0.0071 H         1 <0>         0.1379
     24 H4         -0.8285   -0.6943    0.0065 H         1 <0>         0.1888
     25 H5          3.1610    3.8990    0.0017 H         1 <0>         0.1340
     26 H6          5.4488    4.7403   -0.0162 H         1 <0>         0.1326
     27 H7          4.6005   -0.1415   -0.0423 H         1 <0>         0.1313
     28 H8          7.9975    4.9997   -0.0422 H         1 <0>         0.4234
     29 H9         10.1138    6.2858    0.5007 H         1 <0>         0.1302
     30 H10        11.3099    5.1658   -2.1736 H         1 <0>         0.1012
     31 H11        11.3822    6.9182   -1.6033 H         1 <0>         0.1091
     32 H12        12.6484    6.1911    0.4708 H         1 <0>         0.1077
     33 H13        12.5762    4.4387   -0.0994 H         1 <0>         0.1098
@<TRIPOS>BOND
     1    1    5 2
     2    1    2 1
     3    1   22 1
     4    2    3 2
     5    2   23 1
     6    3    4 1
     7    3    6 1
     8    4    5 1
     9    5   24 1
    10    6   11 ar
    11    6    7 ar
    12    7    8 ar
    13    7   25 1
    14    8    9 ar
    15    8   26 1
    16    9   15 1
    17    9   10 ar
    18   10   11 ar
    19   10   12 1
    20   11   27 1
    21   12   13 1
    22   12   14 1
    23   14   15 2
    24   15   16 1
    25   16   17 am
    26   16   28 1
    27   17   18 2
    28   17   19 1
    29   19   21 1
    30   19   20 1
    31   19   29 1
    32   20   21 1
    33   20   30 1
    34   20   31 1
    35   21   32 1
    36   21   33 1
@<TRIPOS>MOLECULE
CHEMBL87735
   45    48     0     0     0
SMALL
USER_CHARGES

@<TRIPOS>ATOM
      1 C1          6.7732   -2.8258    6.5682 C.ar      1 <0>        -0.1172
      2 C2          8.0504   -2.6667    6.0630 C.ar      1 <0>        -0.1051
      3 C3          8.2459   -2.5490    4.7006 C.ar      1 <0>        -0.1294
      4 C4          7.1590   -2.5907    3.8389 C.ar      1 <0>         0.0821
      5 C5          5.8783   -2.7504    4.3486 C.ar      1 <0>        -0.1211
      6 C6          5.6885   -2.8675    5.7118 C.ar      1 <0>        -0.1050
      7 O1          7.3485   -2.4747    2.4984 O.3       1 <0>        -0.2419
      8 C7          7.8224   -3.5558    1.8252 C.ar      1 <0>         0.1764
      9 C8          7.9679   -4.7703    2.4726 C.ar      1 <0>        -0.2125
     10 C9          8.4517   -5.8725    1.7858 C.ar      1 <0>        -0.0514
     11 C10         8.7939   -5.7767    0.4534 C.ar      1 <0>        -0.1537
     12 C11         8.6556   -4.5654   -0.2168 C.ar      1 <0>         0.1412
     13 C12         8.1603   -3.4497    0.4741 C.ar      1 <0>        -0.0775
     14 C13         8.1273   -2.3436   -0.5015 C.2       1 <0>        -0.1144
     15 C14         8.5931   -2.8670   -1.6975 C.2       1 <0>         0.3050
     16 N1          8.9126   -4.1776   -1.5196 N.pl3     1 <0>        -0.5738
     17 H1          9.2601   -4.7612   -2.2122 H         1 <0>         0.4258
     18 O2          8.7217   -2.1798   -2.8555 O.3       1 <0>        -0.4514
     19 N2          7.7242   -1.0766   -0.2750 N.2       1 <0>        -0.0571
     20 N3          6.8693   -0.5208   -1.0652 N.2       1 <0>        -0.1723
     21 C15         6.4698   -1.1658   -2.2030 C.ar      1 <0>         0.0758
     22 C16         5.7558   -2.3638   -2.1169 C.ar      1 <0>        -0.1328
     23 C17         5.3561   -3.0087   -3.2686 C.ar      1 <0>        -0.0097
     24 C18         5.6606   -2.4722   -4.5073 C.ar      1 <0>        -0.6713
     25 C19         6.3674   -1.2861   -4.6003 C.ar      1 <0>        -0.0051
     26 C20         6.7686   -0.6271   -3.4571 C.ar      1 <0>        -0.0893
     27 S1          5.1464   -3.3036   -5.9732 S.o2      1 <0>         2.7009
     28 O3          6.0253   -2.8837   -7.0079 O.2       1 <0>        -0.9628
     29 O4          4.9765   -4.6710   -5.6263 O.2       1 <0>        -0.9646
     30 N4          3.6449   -2.7243   -6.3636 N.pl3     1 <0>        -1.2498
     31 H2          6.6230   -2.9221    7.6334 H         1 <0>         0.1289
     32 H3          8.8959   -2.6340    6.7342 H         1 <0>         0.1309
     33 H4          9.2437   -2.4244    4.3065 H         1 <0>         0.1310
     34 H5          5.0307   -2.7828    3.6800 H         1 <0>         0.1310
     35 H6          4.6919   -2.9922    6.1090 H         1 <0>         0.1316
     36 H7          7.7040   -4.8593    3.5161 H         1 <0>         0.1363
     37 H8          8.5622   -6.8161    2.2995 H         1 <0>         0.1378
     38 H9          9.1702   -6.6429   -0.0705 H         1 <0>         0.1321
     39 H10         9.5552   -1.6961   -2.9353 H         1 <0>         0.4037
     40 H11         5.5178   -2.7838   -1.1508 H         1 <0>         0.1296
     41 H12         4.8045   -3.9350   -3.2036 H         1 <0>         0.1429
     42 H13         6.6016   -0.8732   -5.5704 H         1 <0>         0.1473
     43 H14         7.3160    0.3010   -3.5311 H         1 <0>         0.1396
     44 H15         3.2261   -2.0488   -5.8076 H         1 <0>         0.4176
     45 H16         3.1843   -3.0605   -7.1482 H         1 <0>         0.4216
@<TRIPOS>BOND
     1    1    6 ar
     2    1    2 ar
     3    1   31 1
     4    2    3 ar
     5    2   32 1
     6    3    4 ar
     7    3   33 1
     8    4    5 ar
     9    4    7 1
    10    5    6 ar
    11    5   34 1
    12    6   35 1
    13    7    8 1
    14    8   13 ar
    15    8    9 ar
    16    9   10 ar
    17    9   36 1
    18   10   11 ar
    19   10   37 1
    20   11   12 ar
    21   11   38 1
    22   12   16 1
    23   12   13 ar
    24   13   14 1
    25   14   15 2
    26   14   19 1
    27   15   16 1
    28   15   18 1
    29   16   17 1
    30   18   39 1
    31   19   20 2
    32   20   21 1
    33   21   26 ar
    34   21   22 ar
    35   22   23 ar
    36   22   40 1
    37   23   24 ar
    38   23   41 1
    39   24   25 ar
    40   24   27 1
    41   25   26 ar
    42   25   42 1
    43   26   43 1
    44   27   28 2
    45   27   29 2
    46   27   30 1
    47   30   44 1
    48   30   45 1
@<TRIPOS>MOLECULE
CHEMBL87735
   45    48     0     0     0
SMALL
USER_CHARGES

@<TRIPOS>ATOM
      1 C1         -0.0119    1.3848    0.0703 C.ar      1 <0>        -0.1195
      2 C2          0.4453    0.7291    1.1985 C.ar      1 <0>        -0.1038
      3 C3          1.6494    0.0530    1.1656 C.ar      1 <0>        -0.1381
      4 C4          2.4004    0.0323   -0.0010 C.ar      1 <0>         0.0827
      5 C5          1.9394    0.6912   -1.1318 C.ar      1 <0>        -0.1195
      6 C6          0.7346    1.3658   -1.0935 C.ar      1 <0>        -0.1025
      7 O1          3.5855   -0.6316   -0.0359 O.3       1 <0>        -0.2384
      8 C7          3.5606   -1.9867    0.0617 C.ar      1 <0>         0.1776
      9 C8          2.3530   -2.6626    0.0629 C.ar      1 <0>        -0.2103
     10 C9          2.3282   -4.0447    0.1629 C.ar      1 <0>        -0.0531
     11 C10         3.5004   -4.7641    0.2624 C.ar      1 <0>        -0.1502
     12 C11         4.7254   -4.1048    0.2632 C.ar      1 <0>         0.1361
     13 C12         4.7539   -2.7064    0.1558 C.ar      1 <0>        -0.0758
     14 C13         6.1779   -2.3216    0.1781 C.2       1 <0>        -0.0306
     15 C14         6.8971   -3.5013    0.2892 C.2       1 <0>         0.3417
     16 N1          6.0323   -4.5502    0.3489 N.pl3     1 <0>        -0.5762
     17 H1          6.2956   -5.4804    0.4280 H         1 <0>         0.4253
     18 O2          8.2455   -3.5942    0.3429 O.3       1 <0>        -0.4412
     19 N2          6.6797   -1.0719    0.1045 N.2       1 <0>        -0.1302
     20 N3          7.9559   -0.8863    0.1362 N.2       1 <0>        -0.2783
     21 C15         8.4647    0.3810    0.0616 C.ar      1 <0>         0.1344
     22 C16         7.6051    1.4775   -0.0432 C.ar      1 <0>        -0.1429
     23 C17         8.1253    2.7526   -0.1180 C.ar      1 <0>        -0.0146
     24 C18         9.4951    2.9474   -0.0895 C.ar      1 <0>        -0.6752
     25 C19        10.3525    1.8662    0.0141 C.ar      1 <0>        -0.0167
     26 C20         9.8464    0.5858    0.0955 C.ar      1 <0>        -0.1008
     27 S1         10.1506    4.5800   -0.1863 S.o2      1 <0>         2.7019
     28 O3         11.4740    4.4572   -0.6890 O.2       1 <0>        -0.9629
     29 O4          9.1634    5.3768   -0.8265 O.2       1 <0>        -0.9629
     30 N4         10.2839    5.1468    1.3640 N.pl3     1 <0>        -1.2501
     31 H2         -0.9557    1.9090    0.0967 H         1 <0>         0.1288
     32 H3         -0.1395    0.7458    2.1064 H         1 <0>         0.1302
     33 H4          2.0062   -0.4587    2.0472 H         1 <0>         0.1297
     34 H5          2.5222    0.6770   -2.0410 H         1 <0>         0.1329
     35 H6          0.3751    1.8785   -1.9735 H         1 <0>         0.1323
     36 H7          1.4274   -2.1116   -0.0141 H         1 <0>         0.1379
     37 H8          1.3810   -4.5635    0.1634 H         1 <0>         0.1384
     38 H9          3.4675   -5.8408    0.3402 H         1 <0>         0.1330
     39 H10         8.6070   -3.5569    1.2390 H         1 <0>         0.4093
     40 H11         6.5359    1.3269   -0.0659 H         1 <0>         0.1462
     41 H12         7.4621    3.6011   -0.1994 H         1 <0>         0.1446
     42 H13        11.4205    2.0257    0.0357 H         1 <0>         0.1495
     43 H14        10.5166   -0.2568    0.1812 H         1 <0>         0.1436
     44 H15        10.0168    4.5869    2.1097 H         1 <0>         0.4168
     45 H16        10.6292    6.0386    1.5264 H         1 <0>         0.4211
@<TRIPOS>BOND
     1    1    6 ar
     2    1    2 ar
     3    1   31 1
     4    2    3 ar
     5    2   32 1
     6    3    4 ar
     7    3   33 1
     8    4    5 ar
     9    4    7 1
    10    5    6 ar
    11    5   34 1
    12    6   35 1
    13    7    8 1
    14    8   13 ar
    15    8    9 ar
    16    9   10 ar
    17    9   36 1
    18   10   11 ar
    19   10   37 1
    20   11   12 ar
    21   11   38 1
    22   12   16 1
    23   12   13 ar
    24   13   14 1
    25   14   15 2
    26   14   19 1
    27   15   16 1
    28   15   18 1
    29   16   17 1
    30   18   39 1
    31   19   20 2
    32   20   21 1
    33   21   26 ar
    34   21   22 ar
    35   22   23 ar
    36   22   40 1
    37   23   24 ar
    38   23   41 1
    39   24   25 ar
    40   24   27 1
    41   25   26 ar
    42   25   42 1
    43   26   43 1
    44   27   28 2
    45   27   29 2
    46   27   30 1
    47   30   44 1
    48   30   45 1
@<TRIPOS>MOLECULE
CHEMBL1083509
   57    60     0     0     0
SMALL
USER_CHARGES

@<TRIPOS>ATOM
      1 C1          0.2526    1.3047   -0.2570 C.3       1 <0>        -0.1191
      2 C2          0.1818   -0.1974   -0.1579 C.ar      1 <0>         0.2081
      3 C3         -0.1675   -0.9663   -1.2721 C.ar      1 <0>        -0.1928
      4 C4         -0.2176   -2.3695   -1.1196 C.ar      1 <0>         0.2562
      5 N1          0.0683   -2.8936    0.0713 N.ar      1 <0>        -0.4134
      6 C5          0.3914   -2.1221    1.0874 C.ar      1 <0>        -0.1890
      7 N2          0.4543   -0.8079    0.9824 N.ar      1 <0>        -0.4383
      8 S1          0.7593   -2.8699    2.6399 S.o2      1 <0>         2.5021
      9 O1          0.4579   -1.8706    3.6042 O.2       1 <0>        -0.8932
     10 O2          0.0500   -4.1011    2.6265 O.2       1 <0>        -0.8879
     11 C6          2.5465   -3.1780    2.5971 C.3       1 <0>        -0.5478
     12 C7          2.9761   -3.8230    3.8895 C.ar      1 <0>        -0.1026
     13 C8          3.3656   -3.0374    4.9581 C.ar      1 <0>        -0.0992
     14 C9          3.7597   -3.6291    6.1436 C.ar      1 <0>        -0.1178
     15 C10         3.7639   -5.0065    6.2606 C.ar      1 <0>        -0.1032
     16 C11         3.3736   -5.7921    5.1923 C.ar      1 <0>        -0.1177
     17 C12         2.9754   -5.2003    4.0082 C.ar      1 <0>        -0.0990
     18 C13        -0.5803   -3.2388   -2.2579 C.ar      1 <0>        -0.1217
     19 C14         0.0741   -3.0980   -3.4835 C.ar      1 <0>        -0.0543
     20 C15        -0.2660   -3.9100   -4.5422 C.ar      1 <0>        -0.1537
     21 C16        -1.2603   -4.8713   -4.3957 C.ar      1 <0>         0.1551
     22 C17        -1.9160   -5.0188   -3.1825 C.ar      1 <0>        -0.1787
     23 C18        -1.5783   -4.2113   -2.1099 C.ar      1 <0>         0.1777
     24 O3         -2.2151   -4.3579   -0.9202 O.3       1 <0>        -0.4747
     25 O4         -1.5906   -5.6681   -5.4444 O.3       1 <0>        -0.4944
     26 C19        -0.4747   -0.3314   -2.5673 C.2       1 <0>         0.5804
     27 O5          0.4136   -0.1352   -3.3742 O.2       1 <0>        -0.4855
     28 N3         -1.7401    0.0314   -2.8566 N.am      1 <0>        -0.6599
     29 C20        -2.0493    0.5421   -4.1212 C.ar      1 <0>         0.1449
     30 C21        -3.2750    0.2536   -4.7078 C.ar      1 <0>        -0.0883
     31 C22        -3.5773    0.7599   -5.9564 C.ar      1 <0>        -0.0935
     32 C23        -2.6612    1.5530   -6.6232 C.ar      1 <0>        -0.0652
     33 C24        -1.4402    1.8417   -6.0423 C.ar      1 <0>        -0.0285
     34 C25        -1.1339    1.3436   -4.7909 C.ar      1 <0>        -0.0617
     35 N4         -0.4625    2.6906   -6.7596 N.pl3     1 <0>         0.0313
     36 O6         -0.7319    3.1311   -7.8528 O.2       1 <0>        -0.1516
     37 O7          0.6054    2.9435   -6.2523 O.3       1 <0>        -0.1498
     38 H1          1.2589    1.6023   -0.5519 H         1 <0>         0.1048
     39 H2         -0.4624    1.6537   -1.0020 H         1 <0>         0.0817
     40 H3          0.0126    1.7444    0.7110 H         1 <0>         0.1036
     41 H4          2.7810   -3.8412    1.7644 H         1 <0>         0.1495
     42 H5          3.0751   -2.2333    2.4692 H         1 <0>         0.1499
     43 H6          3.3623   -1.9612    4.8666 H         1 <0>         0.1339
     44 H7          4.0647   -3.0153    6.9782 H         1 <0>         0.1320
     45 H8          4.0725   -5.4688    7.1866 H         1 <0>         0.1297
     46 H9          3.3773   -6.8682    5.2837 H         1 <0>         0.1318
     47 H10         2.6669   -5.8140    3.1748 H         1 <0>         0.1336
     48 H11         0.8465   -2.3523   -3.6010 H         1 <0>         0.1440
     49 H12         0.2407   -3.7997   -5.4895 H         1 <0>         0.1413
     50 H13        -2.6875   -5.7667   -3.0733 H         1 <0>         0.1467
     51 H14        -3.0091   -3.8136   -0.8293 H         1 <0>         0.3919
     52 H15        -1.0794   -6.4875   -5.4921 H         1 <0>         0.4013
     53 H16        -2.4363   -0.0617   -2.1877 H         1 <0>         0.4202
     54 H17        -3.9905   -0.3663   -4.1881 H         1 <0>         0.1473
     55 H18        -4.5301    0.5359   -6.4131 H         1 <0>         0.1559
     56 H19        -2.9000    1.9475   -7.5998 H         1 <0>         0.1581
     57 H20        -0.1818    1.5731   -4.3358 H         1 <0>         0.1693
@<TRIPOS>BOND
     1    1    2 1
     2    1   38 1
     3    1   39 1
     4    1   40 1
     5    2    7 ar
     6    2    3 ar
     7    3    4 ar
     8    3   26 1
     9    4    5 ar
    10    4   18 1
    11    5    6 ar
    12    6    7 ar
    13    6    8 1
    14    8    9 2
    15    8   10 2
    16    8   11 1
    17   11   12 1
    18   11   41 1
    19   11   42 1
    20   12   17 ar
    21   12   13 ar
    22   13   14 ar
    23   13   43 1
    24   14   15 ar
    25   14   44 1
    26   15   16 ar
    27   15   45 1
    28   16   17 ar
    29   16   46 1
    30   17   47 1
    31   18   23 ar
    32   18   19 ar
    33   19   20 ar
    34   19   48 1
    35   20   21 ar
    36   20   49 1
    37   21   22 ar
    38   21   25 1
    39   22   23 ar
    40   22   50 1
    41   23   24 1
    42   24   51 1
    43   25   52 1
    44   26   27 2
    45   26   28 am
    46   28   29 1
    47   28   53 1
    48   29   34 ar
    49   29   30 ar
    50   30   31 ar
    51   30   54 1
    52   31   32 ar
    53   31   55 1
    54   32   33 ar
    55   32   56 1
    56   33   34 ar
    57   33   35 1
    58   34   57 1
    59   35   36 2
    60   35   37 1
@<TRIPOS>MOLECULE
CHEMBL344579
   39    42     0     0     0
SMALL
USER_CHARGES

@<TRIPOS>ATOM
      1 C1         -0.0166    1.3865    0.0285 C.ar      1 <0>        -0.1943
      2 C2          1.1613    2.0839    0.0154 C.ar      1 <0>        -0.0549
      3 C3          2.3597    1.3584   -0.0023 C.ar      1 <0>        -0.0747
      4 C4          2.3103   -0.0579   -0.0059 C.ar      1 <0>         0.1307
      5 C5          3.5146   -0.7867   -0.0241 C.ar      1 <0>        -0.1390
      6 C6          4.7160   -0.1579   -0.0378 C.ar      1 <0>        -0.0621
      7 C7          4.8177    1.2386   -0.0350 C.ar      1 <0>         0.0471
      8 C8          3.6578    2.0168   -0.0176 C.ar      1 <0>        -0.0173
      9 C9          4.0980    3.4190   -0.0188 C.2       1 <0>        -0.3394
     10 C10         5.4864    3.3891   -0.0372 C.2       1 <0>         0.4876
     11 N1          5.9021    2.0968   -0.0473 N.pl3     1 <0>        -0.6217
     12 H1          6.8301    1.8148   -0.0605 H         1 <0>         0.4007
     13 O1          6.2945    4.4733   -0.0444 O.3       1 <0>        -0.6382
     14 C11         3.2710    4.5713   -0.0041 C.2       1 <0>         0.2926
     15 N2          3.8077    5.7606    0.0962 N.2       1 <0>        -0.5517
     16 C12         3.0099    6.8722    0.1104 C.ar      1 <0>         0.2119
     17 C13         1.9575    6.9922   -0.8001 C.ar      1 <0>        -0.2156
     18 C14         1.1570    8.1153   -0.7798 C.ar      1 <0>         0.0067
     19 C15         1.3949    9.1219    0.1394 C.ar      1 <0>        -0.7265
     20 C16         2.4357    9.0097    1.0443 C.ar      1 <0>        -0.0001
     21 C17         3.2406    7.8896    1.0392 C.ar      1 <0>        -0.1608
     22 S1          0.3680   10.5536    0.1573 S.o2      1 <0>         2.7041
     23 O2          1.1325   11.5945    0.7500 O.2       1 <0>        -0.9747
     24 O3         -0.1939   10.6667   -1.1430 O.2       1 <0>        -0.9755
     25 N3         -0.8884   10.2421    1.1902 N.pl3     1 <0>        -1.2534
     26 N4          1.1277   -0.6788    0.0077 N.ar      1 <0>        -0.4797
     27 C18         0.0023   -0.0042    0.0242 C.ar      1 <0>         0.1085
     28 H2         -0.9583    1.9149    0.0468 H         1 <0>         0.1281
     29 H3          1.1667    3.1639    0.0181 H         1 <0>         0.1304
     30 H4          3.4810   -1.8662   -0.0269 H         1 <0>         0.1275
     31 H5          5.6190   -0.7503   -0.0510 H         1 <0>         0.1177
     32 H6          2.1984    4.4671   -0.0757 H         1 <0>         0.0811
     33 H7          1.7712    6.2076   -1.5185 H         1 <0>         0.1242
     34 H8          0.3429    8.2095   -1.4832 H         1 <0>         0.1325
     35 H9          2.6157    9.7992    1.7590 H         1 <0>         0.1354
     36 H10         4.0500    7.8014    1.7487 H         1 <0>         0.1319
     37 H11        -0.9410    9.3875    1.6460 H         1 <0>         0.4164
     38 H12        -1.5716   10.9143    1.3395 H         1 <0>         0.4156
     39 H13        -0.9337   -0.5429    0.0351 H         1 <0>         0.1490
@<TRIPOS>BOND
     1    1   27 ar
     2    1    2 ar
     3    1   28 1
     4    2    3 ar
     5    2   29 1
     6    3    8 ar
     7    3    4 ar
     8    4    5 ar
     9    4   26 ar
    10    5    6 ar
    11    5   30 1
    12    6    7 ar
    13    6   31 1
    14    7   11 1
    15    7    8 ar
    16    8    9 1
    17    9   10 2
    18    9   14 1
    19   10   11 1
    20   10   13 1
    21   11   12 1
    22   14   15 2
    23   14   32 1
    24   15   16 1
    25   16   21 ar
    26   16   17 ar
    27   17   18 ar
    28   17   33 1
    29   18   19 ar
    30   18   34 1
    31   19   20 ar
    32   19   22 1
    33   20   21 ar
    34   20   35 1
    35   21   36 1
    36   22   23 2
    37   22   24 2
    38   22   25 1
    39   25   37 1
    40   25   38 1
    41   26   27 ar
    42   27   39 1
@<TRIPOS>MOLECULE
CHEMBL344579
   40    43     0     0     0
SMALL
USER_CHARGES

@<TRIPOS>ATOM
      1 C1         -0.0166    1.3865    0.0284 C.ar      1 <0>        -0.1664
      2 C2          1.1613    2.0839    0.0153 C.ar      1 <0>        -0.0644
      3 C3          2.3597    1.3584   -0.0024 C.ar      1 <0>        -0.0596
      4 C4          2.3103   -0.0579   -0.0059 C.ar      1 <0>         0.1330
      5 C5          3.5146   -0.7867   -0.0242 C.ar      1 <0>        -0.0797
      6 C6          4.7160   -0.1579   -0.0379 C.ar      1 <0>        -0.0786
      7 C7          4.8177    1.2386   -0.0350 C.ar      1 <0>         0.0783
      8 C8          3.6578    2.0168   -0.0177 C.ar      1 <0>        -0.0512
      9 C9          4.0980    3.4190   -0.0188 C.2       1 <0>        -0.1848
     10 C10         5.4864    3.3891   -0.0372 C.2       1 <0>         0.3386
     11 N1          5.9021    2.0968   -0.0473 N.pl3     1 <0>        -0.5635
     12 H1          6.8301    1.8148   -0.0604 H         1 <0>         0.4227
     13 O1          6.2945    4.4733   -0.0443 O.3       1 <0>        -0.4426
     14 C11         3.2710    4.5713   -0.0041 C.2       1 <0>         0.2604
     15 N2          3.8077    5.7606    0.0962 N.2       1 <0>        -0.5055
     16 C12         3.0099    6.8722    0.1104 C.ar      1 <0>         0.1615
     17 C13         1.9575    6.9922   -0.8001 C.ar      1 <0>        -0.1845
     18 C14         1.1570    8.1153   -0.7798 C.ar      1 <0>         0.0028
     19 C15         1.3949    9.1219    0.1394 C.ar      1 <0>        -0.6940
     20 C16         2.4357    9.0097    1.0443 C.ar      1 <0>        -0.0020
     21 C17         3.2406    7.8896    1.0392 C.ar      1 <0>        -0.1347
     22 S1          0.3680   10.5536    0.1573 S.o2      1 <0>         2.7025
     23 O2          1.1325   11.5945    0.7500 O.2       1 <0>        -0.9636
     24 O3         -0.1939   10.6667   -1.1430 O.2       1 <0>        -0.9641
     25 N3         -0.8884   10.2421    1.1902 N.pl3     1 <0>        -1.2504
     26 N4          1.1277   -0.6788    0.0076 N.ar      1 <0>        -0.4668
     27 C18         0.0023   -0.0042    0.0241 C.ar      1 <0>         0.1224
     28 H2         -0.9583    1.9149    0.0467 H         1 <0>         0.1405
     29 H3          1.1667    3.1639    0.0181 H         1 <0>         0.1345
     30 H4          3.4810   -1.8662   -0.0270 H         1 <0>         0.1453
     31 H5          5.6190   -0.7503   -0.0510 H         1 <0>         0.1341
     32 H6          6.5412    4.7858    0.8370 H         1 <0>         0.4068
     33 H7          2.1984    4.4671   -0.0757 H         1 <0>         0.1101
     34 H8          1.7712    6.2076   -1.5185 H         1 <0>         0.1326
     35 H9          0.3429    8.2095   -1.4832 H         1 <0>         0.1447
     36 H10         2.6157    9.7992    1.7590 H         1 <0>         0.1471
     37 H11         4.0500    7.8014    1.7487 H         1 <0>         0.1388
     38 H12        -0.9410    9.3875    1.6460 H         1 <0>         0.4163
     39 H13        -1.5716   10.9143    1.3395 H         1 <0>         0.4211
     40 H14        -0.9337   -0.5429    0.0350 H         1 <0>         0.1619
@<TRIPOS>BOND
     1    1   27 ar
     2    1    2 ar
     3    1   28 1
     4    2    3 ar
     5    2   29 1
     6    3    8 ar
     7    3    4 ar
     8    4    5 ar
     9    4   26 ar
    10    5    6 ar
    11    5   30 1
    12    6    7 ar
    13    6   31 1
    14    7   11 1
    15    7    8 ar
    16    8    9 1
    17    9   10 2
    18    9   14 1
    19   10   11 1
    20   10   13 1
    21   11   12 1
    22   13   32 1
    23   14   15 2
    24   14   33 1
    25   15   16 1
    26   16   21 ar
    27   16   17 ar
    28   17   18 ar
    29   17   34 1
    30   18   19 ar
    31   18   35 1
    32   19   20 ar
    33   19   22 1
    34   20   21 ar
    35   20   36 1
    36   21   37 1
    37   22   23 2
    38   22   24 2
    39   22   25 1
    40   25   38 1
    41   25   39 1
    42   26   27 ar
    43   27   40 1
@<TRIPOS>MOLECULE
CHEMBL1087073
   34    37     0     0     0
SMALL
USER_CHARGES

@<TRIPOS>ATOM
      1 C1          0.3429    1.1126    2.2766 C.ar      1 <0>        -0.0260
      2 C2          1.3106    1.8963    1.6807 C.ar      1 <0>        -0.1362
      3 C3          2.4291    1.3054    1.1041 C.ar      1 <0>         0.1900
      4 C4          2.5562   -0.0908    1.1381 C.ar      1 <0>        -0.0580
      5 C5          1.5750   -0.8714    1.7413 C.ar      1 <0>         0.0199
      6 C6          0.4718   -0.2659    2.3084 C.ar      1 <0>        -0.0755
      7 N1         -0.5752   -1.0913    2.9515 N.pl3     1 <0>         0.0410
      8 O1         -1.4787   -0.5599    3.5540 O.2       1 <0>        -0.1622
      9 O2         -0.5268   -2.2968    2.8744 O.3       1 <0>        -0.1634
     10 C7          3.8285   -0.4099    0.4557 C.2       1 <0>        -0.2449
     11 C8          4.3803   -1.6658    0.2431 C.2       1 <0>         0.2914
     12 C9          3.6367   -2.9089   -0.0561 C.2       1 <0>         0.1734
     13 N2          2.3442   -3.0522   -0.1742 N.2       1 <0>        -0.2432
     14 O3          1.5174   -1.9139   -0.3348 O.3       1 <0>        -0.3636
     15 C10         4.6762   -3.9566   -0.1937 C.ar      1 <0>        -0.0861
     16 C11         4.6150   -5.3190   -0.4690 C.ar      1 <0>        -0.0656
     17 C12         5.7808   -6.0586   -0.5358 C.ar      1 <0>         0.0828
     18 C13         7.0058   -5.4430   -0.3282 C.ar      1 <0>        -0.0930
     19 C14         7.0749   -4.0926   -0.0542 C.ar      1 <0>        -0.1037
     20 C15         5.9112   -3.3323    0.0158 C.ar      1 <0>         0.1470
     21 N3          5.7127   -1.9794    0.2660 N.pl3     1 <0>        -0.6009
     22 F1          5.7266   -7.3818   -0.8028 F         1 <0>        -0.1273
     23 C16         4.3816    0.8879    0.0514 C.2       1 <0>         0.5721
     24 O4          5.4299    1.0649   -0.5438 O.2       1 <0>        -0.5113
     25 N4          3.5299    1.8470    0.4523 N.am      1 <0>        -0.6438
     26 H1         -0.5209    1.5794    2.7264 H         1 <0>         0.1593
     27 H2          1.1984    2.9703    1.6621 H         1 <0>         0.1511
     28 H3          1.6759   -1.9464    1.7654 H         1 <0>         0.1482
     29 H4          0.7562   -2.0591   -0.9132 H         1 <0>         0.4099
     30 H5          3.6600   -5.7970   -0.6297 H         1 <0>         0.1538
     31 H6          7.9136   -6.0257   -0.3811 H         1 <0>         0.1546
     32 H7          8.0347   -3.6240    0.1060 H         1 <0>         0.1493
     33 H8          6.4240   -1.3423    0.4370 H         1 <0>         0.4363
     34 H9          3.6662    2.7960    0.3052 H         1 <0>         0.4245
@<TRIPOS>BOND
     1    1    6 ar
     2    1    2 ar
     3    1   26 1
     4    2    3 ar
     5    2   27 1
     6    3   25 1
     7    3    4 ar
     8    4    5 ar
     9    4   10 1
    10    5    6 ar
    11    5   28 1
    12    6    7 1
    13    7    8 2
    14    7    9 1
    15   10   11 2
    16   10   23 1
    17   11   21 1
    18   11   12 1
    19   12   13 2
    20   12   15 1
    21   13   14 1
    22   14   29 1
    23   15   20 ar
    24   15   16 ar
    25   16   17 ar
    26   16   30 1
    27   17   18 ar
    28   17   22 1
    29   18   19 ar
    30   18   31 1
    31   19   20 ar
    32   19   32 1
    33   20   21 1
    34   21   33 1
    35   23   24 2
    36   23   25 am
    37   25   34 1
@<TRIPOS>MOLECULE
CHEMBL183511
   56    59     0     0     0
SMALL
USER_CHARGES

@<TRIPOS>ATOM
      1 C1         -0.4625    2.0456   -0.5499 C.3       1 <0>        -0.1449
      2 C2         -0.2536    0.5395   -0.3790 C.3       1 <0>        -0.0364
      3 C3          0.5698    0.2790    0.8839 C.3       1 <0>        -0.1447
      4 C4         -1.5918   -0.1424   -0.2557 C.ar      1 <0>        -0.1249
      5 C5         -2.4514    0.1940    0.7677 C.ar      1 <0>         0.1803
      6 C6         -3.6958   -0.4319    0.8924 C.ar      1 <0>        -0.2078
      7 C7         -4.0890   -1.3880    0.0073 C.ar      1 <0>        -0.0239
      8 C8         -3.2372   -1.7533   -1.0458 C.ar      1 <0>        -0.2346
      9 C9         -1.9745   -1.1190   -1.1834 C.ar      1 <0>         0.2433
     10 N1         -1.1795   -1.4793   -2.1997 N.ar      1 <0>        -0.5589
     11 C10        -1.5735   -2.4034   -3.0545 C.ar      1 <0>         0.5659
     12 N2         -2.7532   -3.0140   -2.9582 N.ar      1 <0>        -0.5621
     13 C11        -3.5967   -2.7356   -1.9860 C.ar      1 <0>         0.2459
     14 N3         -0.7276   -2.7519   -4.0929 N.pl3     1 <0>        -0.6375
     15 C12        -1.1634   -3.6425   -5.0824 C.ar      1 <0>         0.1334
     16 C13        -2.4952   -3.6458   -5.4758 C.ar      1 <0>        -0.0654
     17 C14        -2.9249   -4.5240   -6.4508 C.ar      1 <0>        -0.1585
     18 C15        -2.0251   -5.4036   -7.0384 C.ar      1 <0>         0.1982
     19 C16        -0.6932   -5.4000   -6.6453 C.ar      1 <0>        -0.1640
     20 C17        -0.2625   -4.5182   -5.6740 C.ar      1 <0>        -0.1034
     21 N4         -2.4607   -6.2941   -8.0263 N.pl3     1 <0>        -0.6409
     22 C18        -3.8383   -6.4002   -8.5404 C.3       1 <0>         0.1147
     23 C19        -3.6875   -7.0122   -9.9555 C.3       1 <0>        -0.1509
     24 C20        -2.5207   -8.0119   -9.7398 C.3       1 <0>         0.0104
     25 C21        -1.6189   -7.2742   -8.7279 C.3       1 <0>         0.1038
     26 N5         -1.7998   -8.2485  -10.9977 N.4       1 <0>        -0.6295
     27 O1         -2.0855    1.1443    1.6659 O.3       1 <0>        -0.2985
     28 C22        -3.0190    1.4495    2.7040 C.3       1 <0>         0.0184
     29 H1          0.5054    2.5388   -0.6391 H         1 <0>         0.0562
     30 H2         -1.0492    2.2312   -1.4497 H         1 <0>         0.0476
     31 H3         -0.9926    2.4396    0.3172 H         1 <0>         0.0665
     32 H4          0.2765    0.1455   -1.2461 H         1 <0>         0.0887
     33 H5          0.0397    0.6730    1.7510 H         1 <0>         0.0660
     34 H6          0.7186   -0.7939    1.0057 H         1 <0>         0.0477
     35 H7          1.5377    0.7723    0.7948 H         1 <0>         0.0563
     36 H8         -4.3536   -0.1530    1.7024 H         1 <0>         0.1390
     37 H9         -5.0525   -1.8637    0.1154 H         1 <0>         0.1398
     38 H10        -4.5496   -3.2397   -1.9208 H         1 <0>         0.1785
     39 H11         0.1670   -2.3795   -4.1355 H         1 <0>         0.4244
     40 H12        -3.1949   -2.9618   -5.0189 H         1 <0>         0.1387
     41 H13        -3.9608   -4.5270   -6.7563 H         1 <0>         0.1239
     42 H14         0.0065   -6.0843   -7.1019 H         1 <0>         0.1198
     43 H15         0.7742   -4.5126   -5.3711 H         1 <0>         0.1289
     44 H16        -4.4311   -7.0574   -7.9041 H         1 <0>         0.0771
     45 H17        -4.2978   -5.4136   -8.6007 H         1 <0>         0.0919
     46 H18        -4.5973   -7.5323  -10.2552 H         1 <0>         0.1138
     47 H19        -3.4178   -6.2483  -10.6848 H         1 <0>         0.0992
     48 H20        -2.8882   -8.9493   -9.3224 H         1 <0>         0.1608
     49 H21        -0.8121   -6.7620   -9.2522 H         1 <0>         0.0762
     50 H22        -1.2060   -7.9868   -8.0139 H         1 <0>         0.0906
     51 H23        -1.4436   -7.3731  -11.3510 H         1 <0>         0.4355
     52 H24        -1.0318   -8.8815  -10.8313 H         1 <0>         0.4396
     53 H25        -3.9494    1.8066    2.2625 H         1 <0>         0.0595
     54 H26        -3.2161    0.5523    3.2907 H         1 <0>         0.0595
     55 H27        -2.6035    2.2224    3.3505 H         1 <0>         0.1056
     56 H28        -2.4288   -8.6535  -11.6747 H         1 <0>         0.4414
@<TRIPOS>BOND
     1    1    2 1
     2    1   29 1
     3    1   30 1
     4    1   31 1
     5    2    3 1
     6    2    4 1
     7    2   32 1
     8    3   33 1
     9    3   34 1
    10    3   35 1
    11    4    9 ar
    12    4    5 ar
    13    5    6 ar
    14    5   27 1
    15    6    7 ar
    16    6   36 1
    17    7    8 ar
    18    7   37 1
    19    8   13 ar
    20    8    9 ar
    21    9   10 ar
    22   10   11 ar
    23   11   12 ar
    24   11   14 1
    25   12   13 ar
    26   13   38 1
    27   14   15 1
    28   14   39 1
    29   15   20 ar
    30   15   16 ar
    31   16   17 ar
    32   16   40 1
    33   17   18 ar
    34   17   41 1
    35   18   19 ar
    36   18   21 1
    37   19   20 ar
    38   19   42 1
    39   20   43 1
    40   21   25 1
    41   21   22 1
    42   22   23 1
    43   22   44 1
    44   22   45 1
    45   23   24 1
    46   23   46 1
    47   23   47 1
    48   24   25 1
    49   24   26 1
    50   24   48 1
    51   25   49 1
    52   25   50 1
    53   26   51 1
    54   26   52 1
    55   26   56 1
    56   27   28 1
    57   28   53 1
    58   28   54 1
    59   28   55 1
@<TRIPOS>MOLECULE
CHEMBL183511
   56    59     0     0     0
SMALL
USER_CHARGES

@<TRIPOS>ATOM
      1 C1         -0.4625    2.0456   -0.5499 C.3       1 <0>        -0.1449
      2 C2         -0.2536    0.5395   -0.3790 C.3       1 <0>        -0.0364
      3 C3          0.5698    0.2790    0.8839 C.3       1 <0>        -0.1447
      4 C4         -1.5918   -0.1424   -0.2557 C.ar      1 <0>        -0.1248
      5 C5         -2.4514    0.1940    0.7677 C.ar      1 <0>         0.1803
      6 C6         -3.6958   -0.4319    0.8924 C.ar      1 <0>        -0.2078
      7 C7         -4.0890   -1.3880    0.0073 C.ar      1 <0>        -0.0239
      8 C8         -3.2372   -1.7533   -1.0458 C.ar      1 <0>        -0.2346
      9 C9         -1.9745   -1.1190   -1.1834 C.ar      1 <0>         0.2433
     10 N1         -1.1795   -1.4793   -2.1997 N.ar      1 <0>        -0.5588
     11 C10        -1.5735   -2.4034   -3.0545 C.ar      1 <0>         0.5660
     12 N2         -2.7532   -3.0140   -2.9582 N.ar      1 <0>        -0.5622
     13 C11        -3.5967   -2.7356   -1.9860 C.ar      1 <0>         0.2458
     14 N3         -0.7276   -2.7519   -4.0929 N.pl3     1 <0>        -0.6374
     15 C12        -1.1634   -3.6425   -5.0824 C.ar      1 <0>         0.1337
     16 C13        -2.4952   -3.6458   -5.4758 C.ar      1 <0>        -0.0657
     17 C14        -2.9249   -4.5240   -6.4508 C.ar      1 <0>        -0.1573
     18 C15        -2.0251   -5.4036   -7.0384 C.ar      1 <0>         0.1976
     19 C16        -0.6932   -5.4000   -6.6453 C.ar      1 <0>        -0.1636
     20 C17        -0.2625   -4.5182   -5.6740 C.ar      1 <0>        -0.1034
     21 N4         -2.4607   -6.2941   -8.0263 N.pl3     1 <0>        -0.6381
     22 C18        -3.8345   -6.3999   -8.5390 C.3       1 <0>         0.1145
     23 C19        -3.8336   -7.4913   -9.6301 C.3       1 <0>        -0.1462
     24 C20        -2.3460   -7.5440  -10.0676 C.3       1 <0>         0.0040
     25 C21        -1.6165   -7.2768   -8.7299 C.3       1 <0>         0.1045
     26 N5         -2.0011   -8.8679  -10.6028 N.4       1 <0>        -0.6276
     27 O1         -2.0855    1.1443    1.6659 O.3       1 <0>        -0.2985
     28 C22        -3.0190    1.4495    2.7040 C.3       1 <0>         0.0184
     29 H1          0.5054    2.5388   -0.6391 H         1 <0>         0.0563
     30 H2         -1.0492    2.2312   -1.4497 H         1 <0>         0.0476
     31 H3         -0.9926    2.4396    0.3172 H         1 <0>         0.0664
     32 H4          0.2765    0.1455   -1.2461 H         1 <0>         0.0888
     33 H5          0.0397    0.6730    1.7510 H         1 <0>         0.0660
     34 H6          0.7186   -0.7939    1.0057 H         1 <0>         0.0477
     35 H7          1.5377    0.7723    0.7948 H         1 <0>         0.0563
     36 H8         -4.3536   -0.1530    1.7024 H         1 <0>         0.1390
     37 H9         -5.0525   -1.8637    0.1154 H         1 <0>         0.1397
     38 H10        -4.5496   -3.2397   -1.9208 H         1 <0>         0.1783
     39 H11         0.1670   -2.3795   -4.1355 H         1 <0>         0.4245
     40 H12        -3.1949   -2.9618   -5.0189 H         1 <0>         0.1387
     41 H13        -3.9608   -4.5270   -6.7563 H         1 <0>         0.1237
     42 H14         0.0065   -6.0843   -7.1019 H         1 <0>         0.1205
     43 H15         0.7742   -4.5126   -5.3711 H         1 <0>         0.1292
     44 H16        -4.5105   -6.6829   -7.7321 H         1 <0>         0.0804
     45 H17        -4.1446   -5.4471   -8.9680 H         1 <0>         0.0779
     46 H18        -4.1484   -8.4497   -9.2171 H         1 <0>         0.0993
     47 H19        -4.4713   -7.2020  -10.4654 H         1 <0>         0.1120
     48 H20        -2.1240   -6.7612  -10.7929 H         1 <0>         0.1594
     49 H21        -0.6252   -6.8627   -8.9139 H         1 <0>         0.0975
     50 H22        -1.5425   -8.1971   -8.1504 H         1 <0>         0.0771
     51 H23        -2.5645   -9.0583  -11.4179 H         1 <0>         0.4415
     52 H24        -1.0249   -8.8839  -10.8574 H         1 <0>         0.4401
     53 H25        -3.9494    1.8066    2.2625 H         1 <0>         0.0595
     54 H26        -3.2161    0.5523    3.2907 H         1 <0>         0.0595
     55 H27        -2.6035    2.2224    3.3505 H         1 <0>         0.1056
     56 H28        -2.1772   -9.5708   -9.9006 H         1 <0>         0.4354
@<TRIPOS>BOND
     1    1    2 1
     2    1   29 1
     3    1   30 1
     4    1   31 1
     5    2    3 1
     6    2    4 1
     7    2   32 1
     8    3   33 1
     9    3   34 1
    10    3   35 1
    11    4    9 ar
    12    4    5 ar
    13    5    6 ar
    14    5   27 1
    15    6    7 ar
    16    6   36 1
    17    7    8 ar
    18    7   37 1
    19    8   13 ar
    20    8    9 ar
    21    9   10 ar
    22   10   11 ar
    23   11   12 ar
    24   11   14 1
    25   12   13 ar
    26   13   38 1
    27   14   15 1
    28   14   39 1
    29   15   20 ar
    30   15   16 ar
    31   16   17 ar
    32   16   40 1
    33   17   18 ar
    34   17   41 1
    35   18   19 ar
    36   18   21 1
    37   19   20 ar
    38   19   42 1
    39   20   43 1
    40   21   25 1
    41   21   22 1
    42   22   23 1
    43   22   44 1
    44   22   45 1
    45   23   24 1
    46   23   46 1
    47   23   47 1
    48   24   25 1
    49   24   26 1
    50   24   48 1
    51   25   49 1
    52   25   50 1
    53   26   51 1
    54   26   52 1
    55   26   56 1
    56   27   28 1
    57   28   53 1
    58   28   54 1
    59   28   55 1
@<TRIPOS>MOLECULE
CHEMBL482193
   53    55     0     0     0
SMALL
USER_CHARGES

@<TRIPOS>ATOM
      1 C1         -0.0187    1.5258    0.0104 C.3       1 <0>        -0.1599
      2 C2          0.0021   -0.0041    0.0020 C.3       1 <0>        -0.1329
      3 C3          0.7182   -0.4975   -1.2568 C.3       1 <0>         0.1492
      4 H1          0.2444   -0.0644   -2.1377 H         1 <0>         0.1233
      5 C4          0.6303   -2.0233   -1.3286 C.3       1 <0>         0.0599
      6 O1          1.1463   -2.5875   -0.1213 O.3       1 <0>        -0.5719
      7 N1          2.1249   -0.0911   -1.2094 N.pl3     1 <0>        -0.6393
      8 C5          2.8415    0.0551   -2.3812 C.cat     1 <0>         0.6985
      9 N2          4.1107    0.4168   -2.3250 N.pl3     1 <0>        -0.5861
     10 C6          4.8187    0.5629   -3.4577 C.2       1 <0>         0.2789
     11 C7          6.1276    0.9208   -3.7247 C.2       1 <0>        -0.1688
     12 C8          6.2954    0.9020   -5.1055 C.2       1 <0>         0.1389
     13 N3          5.1619    0.5540   -5.6677 N.2       1 <0>        -0.2512
     14 N4          4.2110    0.3327   -4.6675 N.pl3     1 <0>        -0.3824
     15 C9          2.8945   -0.0408   -4.6893 C.2       1 <0>         0.7284
     16 N5          2.2397   -0.1773   -3.5527 N.2       1 <0>        -0.5902
     17 N6          2.2633   -0.2770   -5.8828 N.pl3     1 <0>        -0.6254
     18 C10         0.8539   -0.6766   -5.8995 C.3       1 <0>         0.1617
     19 C11         0.4042   -0.8726   -7.3244 C.ar      1 <0>        -0.1405
     20 C12        -0.1224    0.1896   -8.0353 C.ar      1 <0>        -0.0920
     21 C13        -0.5350    0.0099   -9.3423 C.ar      1 <0>        -0.1186
     22 C14        -0.4205   -1.2320   -9.9386 C.ar      1 <0>        -0.0926
     23 C15         0.1070   -2.2940   -9.2281 C.ar      1 <0>        -0.1188
     24 C16         0.5235   -2.1131   -7.9224 C.ar      1 <0>        -0.0923
     25 C17         7.1811    1.2682   -2.7047 C.3       1 <0>        -0.0224
     26 C18         8.3546    0.2947   -2.8317 C.3       1 <0>        -0.1502
     27 C19         7.6745    2.6961   -2.9470 C.3       1 <0>        -0.1502
     28 H2          1.0039    1.9031    0.0027 H         1 <0>         0.0492
     29 H3         -0.5459    1.8868   -0.8726 H         1 <0>         0.0602
     30 H4         -0.5289    1.8773    0.9072 H         1 <0>         0.0702
     31 H5          0.5293   -0.3651    0.8851 H         1 <0>         0.0869
     32 H6         -1.0205   -0.3814    0.0098 H         1 <0>         0.0973
     33 H7         -0.4106   -2.3218   -1.4533 H         1 <0>         0.0744
     34 H8          1.2150   -2.3814   -2.1759 H         1 <0>         0.0536
     35 H9          1.1218   -3.5538   -0.0969 H         1 <0>         0.3922
     36 H10         2.5531    0.0754   -0.3551 H         1 <0>         0.4320
     37 H11         7.2101    1.1363   -5.6298 H         1 <0>         0.2224
     38 H12         2.7497   -0.1796   -6.7163 H         1 <0>         0.4391
     39 H13         0.7343   -1.6098   -5.3491 H         1 <0>         0.1029
     40 H14         0.2502    0.1011   -5.4316 H         1 <0>         0.1038
     41 H15        -0.2119    1.1598   -7.5693 H         1 <0>         0.1263
     42 H16        -0.9471    0.8396   -9.8975 H         1 <0>         0.1316
     43 H17        -0.7434   -1.3726  -10.9596 H         1 <0>         0.1316
     44 H18         0.1961   -3.2643   -9.6939 H         1 <0>         0.1314
     45 H19         0.9390   -2.9419   -7.3685 H         1 <0>         0.1259
     46 H20         6.7557    1.1958   -1.7038 H         1 <0>         0.0766
     47 H21         8.7801    0.3671   -3.8326 H         1 <0>         0.0657
     48 H22         9.1166    0.5460   -2.0939 H         1 <0>         0.0725
     49 H23         8.0032   -0.7225   -2.6590 H         1 <0>         0.0574
     50 H24         6.8385    3.3896   -2.8566 H         1 <0>         0.0574
     51 H25         8.4365    2.9473   -2.2093 H         1 <0>         0.0725
     52 H26         8.1000    2.7685   -3.9480 H         1 <0>         0.0657
     53 H27         4.5317    0.5774   -1.4660 H         1 <0>         0.4483
@<TRIPOS>BOND
     1    1    2 1
     2    1   28 1
     3    1   29 1
     4    1   30 1
     5    2    3 1
     6    2   31 1
     7    2   32 1
     8    3    4 1
     9    3    5 1
    10    3    7 1
    11    5    6 1
    12    5   33 1
    13    5   34 1
    14    6   35 1
    15    7    8 1
    16    7   36 1
    17    8   16 1
    18    8    9 2
    19    9   10 1
    20    9   53 1
    21   10   14 1
    22   10   11 2
    23   11   12 1
    24   11   25 1
    25   12   13 2
    26   12   37 1
    27   13   14 1
    28   14   15 1
    29   15   16 2
    30   15   17 1
    31   17   18 1
    32   17   38 1
    33   18   19 1
    34   18   39 1
    35   18   40 1
    36   19   24 ar
    37   19   20 ar
    38   20   21 ar
    39   20   41 1
    40   21   22 ar
    41   21   42 1
    42   22   23 ar
    43   22   43 1
    44   23   24 ar
    45   23   44 1
    46   24   45 1
    47   25   26 1
    48   25   27 1
    49   25   46 1
    50   26   47 1
    51   26   48 1
    52   26   49 1
    53   27   50 1
    54   27   51 1
    55   27   52 1
@<TRIPOS>MOLECULE
CHEMBL482193
   52    54     0     0     0
SMALL
USER_CHARGES

@<TRIPOS>ATOM
      1 C1         -0.0187    1.5258    0.0104 C.3       1 <0>        -0.1545
      2 C2          0.0021   -0.0041    0.0020 C.3       1 <0>        -0.1280
      3 C3         -1.4333   -0.5336    0.0129 C.3       1 <0>         0.1630
      4 H1         -1.9701   -0.1109    0.8621 H         1 <0>         0.1040
      5 C4         -1.4133   -2.0590    0.1302 C.3       1 <0>         0.0627
      6 O1         -0.6117   -2.6069   -0.9183 O.3       1 <0>        -0.5682
      7 N1         -2.1054   -0.1483   -1.2305 N.pl3     1 <0>        -0.6685
      8 C5         -3.4818   -0.0368   -1.2657 C.2       1 <0>         0.6288
      9 N2         -4.0765    0.3062   -2.3943 N.2       1 <0>        -0.6023
     10 C6         -5.4147    0.4181   -2.4417 C.2       1 <0>         0.3487
     11 C7         -6.3090    0.7497   -3.4432 C.2       1 <0>        -0.2518
     12 C8         -7.5879    0.7004   -2.8982 C.2       1 <0>         0.1207
     13 N3         -7.4995    0.3591   -1.6342 N.2       1 <0>        -0.3263
     14 N4         -6.1527    0.1732   -1.3098 N.pl3     1 <0>        -0.3982
     15 C9         -5.5043   -0.1797   -0.1574 C.2       1 <0>         0.6978
     16 N5         -4.1895   -0.2832   -0.1581 N.2       1 <0>        -0.6304
     17 N6         -6.2162   -0.4298    0.9868 N.pl3     1 <0>        -0.6761
     18 C10        -5.5163   -0.8071    2.2173 C.3       1 <0>         0.1775
     19 C11        -6.5204   -1.0246    3.3198 C.ar      1 <0>        -0.1209
     20 C12        -6.8998    0.0313    4.1273 C.ar      1 <0>        -0.0954
     21 C13        -7.8208   -0.1682    5.1387 C.ar      1 <0>        -0.1214
     22 C14        -8.3628   -1.4235    5.3422 C.ar      1 <0>        -0.1051
     23 C15        -7.9841   -2.4792    4.5341 C.ar      1 <0>        -0.1215
     24 C16        -7.0663   -2.2787    3.5200 C.ar      1 <0>        -0.0957
     25 C17        -5.9610    1.1008   -4.8669 C.3       1 <0>        -0.0041
     26 C18        -6.6326    0.1063   -5.8161 C.3       1 <0>        -0.1409
     27 C19        -6.4537    2.5154   -5.1783 C.3       1 <0>        -0.1408
     28 H2          1.0039    1.9031    0.0027 H         1 <0>         0.0585
     29 H3         -0.5459    1.8868   -0.8726 H         1 <0>         0.0558
     30 H4         -0.5289    1.8773    0.9072 H         1 <0>         0.0538
     31 H5          0.5123   -0.3556   -0.8948 H         1 <0>         0.0791
     32 H6          0.5293   -0.3651    0.8851 H         1 <0>         0.0797
     33 H7         -0.9936   -2.3437    1.0951 H         1 <0>         0.0554
     34 H8         -2.4301   -2.4431    0.0488 H         1 <0>         0.0493
     35 H9         -0.5540   -3.5721   -0.9058 H         1 <0>         0.3796
     36 H10        -1.5839    0.0285   -2.0291 H         1 <0>         0.4204
     37 H11        -8.5048    0.9094   -3.4292 H         1 <0>         0.1935
     38 H12        -7.1835   -0.3569    0.9819 H         1 <0>         0.4251
     39 H13        -4.9563   -1.7270    2.0492 H         1 <0>         0.0857
     40 H14        -4.8294   -0.0107    2.5033 H         1 <0>         0.0865
     41 H15        -6.4763    1.0120    3.9683 H         1 <0>         0.1249
     42 H16        -8.1166    0.6566    5.7700 H         1 <0>         0.1265
     43 H17        -9.0818   -1.5795    6.1328 H         1 <0>         0.1258
     44 H18        -8.4073   -3.4599    4.6933 H         1 <0>         0.1264
     45 H19        -6.7732   -3.1027    2.8863 H         1 <0>         0.1244
     46 H20        -4.8799    1.0553   -4.9985 H         1 <0>         0.0793
     47 H21        -7.7137    0.1518   -5.6845 H         1 <0>         0.0525
     48 H22        -6.3809    0.3603   -6.8458 H         1 <0>         0.0551
     49 H23        -6.2816   -0.9015   -5.5942 H         1 <0>         0.0509
     50 H24        -7.5347    2.5609   -5.0467 H         1 <0>         0.0525
     51 H25        -5.9752    3.2238   -4.5021 H         1 <0>         0.0510
     52 H26        -6.2020    2.7693   -6.2080 H         1 <0>         0.0551
@<TRIPOS>BOND
     1    1    2 1
     2    1   28 1
     3    1   29 1
     4    1   30 1
     5    2    3 1
     6    2   31 1
     7    2   32 1
     8    3    4 1
     9    3    5 1
    10    3    7 1
    11    5    6 1
    12    5   33 1
    13    5   34 1
    14    6   35 1
    15    7    8 1
    16    7   36 1
    17    8   16 1
    18    8    9 2
    19    9   10 1
    20   10   14 1
    21   10   11 2
    22   11   12 1
    23   11   25 1
    24   12   13 2
    25   12   37 1
    26   13   14 1
    27   14   15 1
    28   15   16 2
    29   15   17 1
    30   17   18 1
    31   17   38 1
    32   18   19 1
    33   18   39 1
    34   18   40 1
    35   19   24 ar
    36   19   20 ar
    37   20   21 ar
    38   20   41 1
    39   21   22 ar
    40   21   42 1
    41   22   23 ar
    42   22   43 1
    43   23   24 ar
    44   23   44 1
    45   24   45 1
    46   25   26 1
    47   25   27 1
    48   25   46 1
    49   26   47 1
    50   26   48 1
    51   26   49 1
    52   27   50 1
    53   27   51 1
    54   27   52 1
@<TRIPOS>MOLECULE
CHEMBL460102
   65    68     0     0     0
SMALL
USER_CHARGES

@<TRIPOS>ATOM
      1 C1          0.4119    1.4183   -0.5288 C.3       1 <0>        -0.1234
      2 C2          0.5626   -0.0779   -0.4299 C.cat     1 <0>         0.3346
      3 N1          0.6169   -0.9033   -1.4414 N.pl3     1 <0>        -0.4761
      4 C3          0.7528   -2.1545   -0.9917 C.2       1 <0>         0.0714
      5 C4          0.7849   -2.1081    0.3693 C.2       1 <0>         0.0704
      6 N2          0.6688   -0.7799    0.7170 N.pl3     1 <0>        -0.3864
      7 C5          0.6593   -0.2334    2.0763 C.3       1 <0>         0.1064
      8 C6          1.7108    0.8723    2.1888 C.3       1 <0>        -0.1797
      9 C7         -0.7235    0.3446    2.3838 C.3       1 <0>        -0.1779
     10 C8          0.9231   -3.2540    1.2899 C.ar      1 <0>         0.2470
     11 C9          1.7972   -3.1876    2.3843 C.ar      1 <0>        -0.0429
     12 C10         1.8917   -4.2877    3.2183 C.ar      1 <0>         0.1946
     13 N3          1.1597   -5.3614    2.9601 N.ar      1 <0>        -0.5135
     14 C11         0.3419   -5.3967    1.9187 C.ar      1 <0>         0.5707
     15 N4          0.2147   -4.3670    1.0975 N.ar      1 <0>        -0.5142
     16 N5         -0.4056   -6.5417    1.6862 N.pl3     1 <0>        -0.6232
     17 C12        -0.3566   -7.6003    2.5891 C.ar      1 <0>         0.1869
     18 C13        -0.2065   -7.3465    3.9494 C.ar      1 <0>        -0.1234
     19 C14        -0.1573   -8.3908    4.8445 C.ar      1 <0>        -0.1011
     20 C15        -0.2586   -9.7075    4.3862 C.ar      1 <0>        -0.1534
     21 C16        -0.4098   -9.9590    3.0195 C.ar      1 <0>        -0.0270
     22 C17        -0.4636   -8.9101    2.1301 C.ar      1 <0>        -0.1453
     23 C18        -0.2057  -10.8294    5.3430 C.2       1 <0>         0.5858
     24 O1         -0.4295  -11.9628    4.9638 O.2       1 <0>        -0.5125
     25 N6          0.0906  -10.5979    6.6372 N.am      1 <0>        -0.6198
     26 C19         0.2502   -9.2739    7.2562 C.3       1 <0>         0.0891
     27 C20         0.5563   -9.5011    8.7516 C.3       1 <0>        -0.1492
     28 C21        -0.0065  -10.9238    9.0093 C.3       1 <0>         0.0027
     29 H1         -1.0806  -10.8919    9.1920 H         1 <0>         0.1566
     30 C22         0.3021  -11.6303    7.6682 C.3       1 <0>         0.0964
     31 N7          0.6953  -11.5738   10.1241 N.4       1 <0>        -0.3788
     32 C23         0.5257  -10.7722   11.3434 C.3       1 <0>        -0.0490
     33 C24         0.1370  -12.9155   10.3386 C.3       1 <0>        -0.0519
     34 F1          2.5296   -2.0768    2.6185 F         1 <0>        -0.1110
     35 H2          1.3953    1.8863   -0.4835 H         1 <0>         0.1287
     36 H3         -0.0687    1.6734   -1.4733 H         1 <0>         0.1224
     37 H4         -0.1999    1.7774    0.2987 H         1 <0>         0.1217
     38 H5          0.8241   -3.0444   -1.5995 H         1 <0>         0.2315
     39 H6          0.8882   -1.0264    2.7883 H         1 <0>         0.1306
     40 H7          1.4819    1.6652    1.4768 H         1 <0>         0.0798
     41 H8          1.7037    1.2788    3.2001 H         1 <0>         0.1053
     42 H9          2.6960    0.4605    1.9697 H         1 <0>         0.0791
     43 H10        -1.4864   -0.4027    2.1656 H         1 <0>         0.0731
     44 H11        -0.7759    0.6206    3.4370 H         1 <0>         0.1043
     45 H12        -0.8933    1.2278    1.7680 H         1 <0>         0.0794
     46 H13         2.5551   -4.2713    4.0704 H         1 <0>         0.1994
     47 H14        -0.9626   -6.6048    0.8945 H         1 <0>         0.4343
     48 H15        -0.1282   -6.3290    4.3029 H         1 <0>         0.1411
     49 H16        -0.0400   -8.1932    5.8998 H         1 <0>         0.1592
     50 H17        -0.4884  -10.9752    2.6623 H         1 <0>         0.1464
     51 H18        -0.5848   -9.1035    1.0745 H         1 <0>         0.1409
     52 H19         1.0767   -8.7417    6.7852 H         1 <0>         0.1012
     53 H20        -0.6711   -8.7012    7.1492 H         1 <0>         0.0973
     54 H21         1.6306   -9.4725    8.9339 H         1 <0>         0.1029
     55 H22         0.0398   -8.7647    9.3672 H         1 <0>         0.1161
     56 H23        -0.3801  -12.4663    7.5135 H         1 <0>         0.1099
     57 H24         1.3359  -11.9754    7.6530 H         1 <0>         0.0889
     58 H25        -0.5352  -10.6907   11.5800 H         1 <0>         0.1246
     59 H26         1.0465  -11.2545   12.1707 H         1 <0>         0.1294
     60 H27         0.9400   -9.7767   11.1843 H         1 <0>         0.1240
     61 H28        -0.9239  -12.8341   10.5752 H         1 <0>         0.1255
     62 H29         0.2628  -13.5103    9.4339 H         1 <0>         0.1248
     63 H30         0.6578  -13.3978   11.1658 H         1 <0>         0.1302
     64 H31         1.6774  -11.6492    9.9051 H         1 <0>         0.4270
     65 H32         0.5664   -0.6471   -2.3756 H         1 <0>         0.4683
@<TRIPOS>BOND
     1    1    2 1
     2    1   35 1
     3    1   36 1
     4    1   37 1
     5    2    6 1
     6    2    3 2
     7    3    4 1
     8    3   65 1
     9    4    5 2
    10    4   38 1
    11    5    6 1
    12    5   10 1
    13    6    7 1
    14    7    8 1
    15    7    9 1
    16    7   39 1
    17    8   40 1
    18    8   41 1
    19    8   42 1
    20    9   43 1
    21    9   44 1
    22    9   45 1
    23   10   15 ar
    24   10   11 ar
    25   11   12 ar
    26   11   34 1
    27   12   13 ar
    28   12   46 1
    29   13   14 ar
    30   14   15 ar
    31   14   16 1
    32   16   17 1
    33   16   47 1
    34   17   22 ar
    35   17   18 ar
    36   18   19 ar
    37   18   48 1
    38   19   20 ar
    39   19   49 1
    40   20   21 ar
    41   20   23 1
    42   21   22 ar
    43   21   50 1
    44   22   51 1
    45   23   24 2
    46   23   25 am
    47   25   30 1
    48   25   26 1
    49   26   27 1
    50   26   52 1
    51   26   53 1
    52   27   28 1
    53   27   54 1
    54   27   55 1
    55   28   29 1
    56   28   30 1
    57   28   31 1
    58   30   56 1
    59   30   57 1
    60   31   32 1
    61   31   33 1
    62   31   64 1
    63   32   58 1
    64   32   59 1
    65   32   60 1
    66   33   61 1
    67   33   62 1
    68   33   63 1
@<TRIPOS>MOLECULE
CHEMBL460102
   64    67     0     0     0
SMALL
USER_CHARGES

@<TRIPOS>ATOM
      1 C1          0.4119    1.4183   -0.5289 C.3       1 <0>        -0.0810
      2 C2          0.5626   -0.0779   -0.4299 C.2       1 <0>         0.2456
      3 N1          0.6169   -0.9033   -1.4414 N.2       1 <0>        -0.4906
      4 C3          0.7528   -2.1545   -0.9917 C.2       1 <0>         0.0605
      5 C4          0.7849   -2.1081    0.3693 C.2       1 <0>        -0.0321
      6 N2          0.6688   -0.7799    0.7170 N.pl3     1 <0>        -0.4318
      7 C5          0.6593   -0.2334    2.0763 C.3       1 <0>         0.1160
      8 C6          1.7108    0.8722    2.1888 C.3       1 <0>        -0.1697
      9 C7         -0.7235    0.3446    2.3838 C.3       1 <0>        -0.1698
     10 C8          0.9231   -3.2540    1.2899 C.ar      1 <0>         0.2906
     11 C9          1.7972   -3.1876    2.3843 C.ar      1 <0>        -0.0543
     12 C10         1.8917   -4.2877    3.2184 C.ar      1 <0>         0.1755
     13 N3          1.1598   -5.3615    2.9601 N.ar      1 <0>        -0.5350
     14 C11         0.3419   -5.3967    1.9187 C.ar      1 <0>         0.5581
     15 N4          0.2147   -4.3670    1.0975 N.ar      1 <0>        -0.5193
     16 N5         -0.4056   -6.5417    1.6862 N.pl3     1 <0>        -0.6319
     17 C12        -0.3566   -7.6003    2.5891 C.ar      1 <0>         0.2063
     18 C13        -0.2065   -7.3465    3.9495 C.ar      1 <0>        -0.1269
     19 C14        -0.1572   -8.3908    4.8445 C.ar      1 <0>        -0.0999
     20 C15        -0.2586   -9.7075    4.3862 C.ar      1 <0>        -0.1676
     21 C16        -0.4098   -9.9590    3.0195 C.ar      1 <0>        -0.0261
     22 C17        -0.4635   -8.9101    2.1301 C.ar      1 <0>        -0.1546
     23 C18        -0.2057  -10.8294    5.3430 C.2       1 <0>         0.5893
     24 O1         -0.4294  -11.9628    4.9638 O.2       1 <0>        -0.5185
     25 N6          0.0906  -10.5979    6.6372 N.am      1 <0>        -0.6208
     26 C19         0.2502   -9.2739    7.2562 C.3       1 <0>         0.0890
     27 C20         0.5563   -9.5011    8.7516 C.3       1 <0>        -0.1489
     28 C21        -0.0065  -10.9238    9.0093 C.3       1 <0>         0.0021
     29 H1         -1.0806  -10.8919    9.1921 H         1 <0>         0.1562
     30 C22         0.3021  -11.6303    7.6682 C.3       1 <0>         0.0974
     31 N7          0.6953  -11.5738   10.1242 N.4       1 <0>        -0.3788
     32 C23         0.5257  -10.7722   11.3434 C.3       1 <0>        -0.0487
     33 C24         0.1370  -12.9155   10.3386 C.3       1 <0>        -0.0513
     34 F1          2.5296   -2.0768    2.6185 F         1 <0>        -0.1140
     35 H2          1.3953    1.8863   -0.4835 H         1 <0>         0.0878
     36 H3         -0.0687    1.6734   -1.4734 H         1 <0>         0.0970
     37 H4         -0.1999    1.7774    0.2987 H         1 <0>         0.0815
     38 H5          0.8242   -3.0445   -1.5995 H         1 <0>         0.1784
     39 H6          0.8882   -1.0264    2.7883 H         1 <0>         0.1031
     40 H7          1.7037    1.2788    3.2001 H         1 <0>         0.0818
     41 H8          2.6959    0.4604    1.9697 H         1 <0>         0.0686
     42 H9          1.4819    1.6652    1.4768 H         1 <0>         0.0748
     43 H10        -1.4864   -0.4027    2.1656 H         1 <0>         0.0631
     44 H11        -0.7759    0.6205    3.4370 H         1 <0>         0.0811
     45 H12        -0.8933    1.2277    1.7680 H         1 <0>         0.0730
     46 H13         2.5551   -4.2713    4.0704 H         1 <0>         0.1877
     47 H14        -0.9625   -6.6049    0.8945 H         1 <0>         0.4321
     48 H15        -0.1282   -6.3290    4.3029 H         1 <0>         0.1428
     49 H16        -0.0400   -8.1932    5.8998 H         1 <0>         0.1555
     50 H17        -0.4883  -10.9752    2.6623 H         1 <0>         0.1424
     51 H18        -0.5847   -9.1036    1.0745 H         1 <0>         0.1392
     52 H19         1.0767   -8.7418    6.7853 H         1 <0>         0.1026
     53 H20        -0.6711   -8.7013    7.1492 H         1 <0>         0.0980
     54 H21         1.6306   -9.4725    8.9340 H         1 <0>         0.1021
     55 H22         0.0398   -8.7647    9.3672 H         1 <0>         0.1154
     56 H23        -0.3801  -12.4663    7.5135 H         1 <0>         0.1083
     57 H24         1.3359  -11.9754    7.6530 H         1 <0>         0.0870
     58 H25         1.0465  -11.2545   12.1707 H         1 <0>         0.1280
     59 H26         0.9400   -9.7767   11.1843 H         1 <0>         0.1244
     60 H27        -0.5352  -10.6908   11.5801 H         1 <0>         0.1241
     61 H28         0.2629  -13.5103    9.4339 H         1 <0>         0.1247
     62 H29         0.6578  -13.3978   11.1659 H         1 <0>         0.1288
     63 H30        -0.9239  -12.8341   10.5752 H         1 <0>         0.1249
     64 H31         1.6774  -11.6492    9.9051 H         1 <0>         0.4269
@<TRIPOS>BOND
     1    1    2 1
     2    1   35 1
     3    1   36 1
     4    1   37 1
     5    2    6 1
     6    2    3 2
     7    3    4 1
     8    4    5 2
     9    4   38 1
    10    5    6 1
    11    5   10 1
    12    6    7 1
    13    7    8 1
    14    7    9 1
    15    7   39 1
    16    8   40 1
    17    8   41 1
    18    8   42 1
    19    9   43 1
    20    9   44 1
    21    9   45 1
    22   10   15 ar
    23   10   11 ar
    24   11   12 ar
    25   11   34 1
    26   12   13 ar
    27   12   46 1
    28   13   14 ar
    29   14   15 ar
    30   14   16 1
    31   16   17 1
    32   16   47 1
    33   17   22 ar
    34   17   18 ar
    35   18   19 ar
    36   18   48 1
    37   19   20 ar
    38   19   49 1
    39   20   21 ar
    40   20   23 1
    41   21   22 ar
    42   21   50 1
    43   22   51 1
    44   23   24 2
    45   23   25 am
    46   25   30 1
    47   25   26 1
    48   26   27 1
    49   26   52 1
    50   26   53 1
    51   27   28 1
    52   27   54 1
    53   27   55 1
    54   28   29 1
    55   28   30 1
    56   28   31 1
    57   30   56 1
    58   30   57 1
    59   31   32 1
    60   31   33 1
    61   31   64 1
    62   32   58 1
    63   32   59 1
    64   32   60 1
    65   33   61 1
    66   33   62 1
    67   33   63 1
@<TRIPOS>MOLECULE
CHEMBL361621
   56    59     0     0     0
SMALL
USER_CHARGES

@<TRIPOS>ATOM
      1 C1         -0.5619    1.9540   -0.4233 C.3       1 <0>        -0.1438
      2 C2         -0.2453    0.4612   -0.3121 C.3       1 <0>        -0.0366
      3 C3          0.6684    0.2220    0.8916 C.3       1 <0>        -0.1436
      4 C4         -1.5262   -0.3119   -0.1320 C.ar      1 <0>        -0.1260
      5 C5         -2.3424   -0.0619    0.9501 C.ar      1 <0>         0.1765
      6 C6         -3.5335   -0.7729    1.1279 C.ar      1 <0>        -0.2145
      7 C7         -3.9163   -1.7286    0.2379 C.ar      1 <0>        -0.0209
      8 C8         -3.1078   -2.0072   -0.8742 C.ar      1 <0>        -0.2400
      9 C9         -1.8998   -1.2862   -1.0657 C.ar      1 <0>         0.2460
     10 N1         -1.1461   -1.5647   -2.1376 N.ar      1 <0>        -0.5676
     11 C10        -1.5300   -2.4893   -2.9963 C.ar      1 <0>         0.5726
     12 N2         -2.6594   -3.1800   -2.8502 N.ar      1 <0>        -0.5554
     13 C11        -3.4588   -2.9853   -1.8220 C.ar      1 <0>         0.2453
     14 N3         -0.7276   -2.7519   -4.0929 N.pl3     1 <0>        -0.6334
     15 C12        -1.1634   -3.6425   -5.0824 C.ar      1 <0>         0.0999
     16 C13        -2.4962   -3.6494   -5.4722 C.ar      1 <0>        -0.0553
     17 C14        -2.9259   -4.5275   -6.4472 C.ar      1 <0>        -0.1821
     18 C15        -2.0251   -5.4036   -7.0384 C.ar      1 <0>         0.2104
     19 C16        -0.6921   -5.3964   -6.6490 C.ar      1 <0>        -0.1818
     20 C17        -0.2614   -4.5146   -5.6776 C.ar      1 <0>        -0.0910
     21 N4         -2.4607   -6.2941   -8.0263 N.pl3     1 <0>        -0.6294
     22 C18        -1.5495   -7.3077   -8.5749 C.3       1 <0>         0.1209
     23 C19        -2.2095   -8.6843   -8.4480 C.3       1 <0>        -0.1375
     24 C20        -3.5860   -8.6492   -9.1159 C.3       1 <0>        -0.1193
     25 C21        -4.4722   -7.6216   -8.4082 C.3       1 <0>        -0.1378
     26 C22        -3.8396   -6.2369   -8.5303 C.3       1 <0>         0.1206
     27 O1         -1.9855    0.8858    1.8546 O.3       1 <0>        -0.3004
     28 C23        -2.8723    1.0994    2.9546 C.3       1 <0>         0.0198
     29 H1          0.3646    2.5132   -0.5536 H         1 <0>         0.0546
     30 H2         -1.2128    2.1244   -1.2809 H         1 <0>         0.0477
     31 H3         -1.0631    2.2878    0.4852 H         1 <0>         0.0653
     32 H4          0.2559    0.1274   -1.2206 H         1 <0>         0.0895
     33 H5          0.1672    0.5558    1.8002 H         1 <0>         0.0648
     34 H6          0.8939   -0.8415    0.9709 H         1 <0>         0.0478
     35 H7          1.5949    0.7812    0.7614 H         1 <0>         0.0546
     36 H8         -4.1578   -0.5609    1.9833 H         1 <0>         0.1360
     37 H9         -4.8384   -2.2706    0.3873 H         1 <0>         0.1377
     38 H10        -4.3711   -3.5537   -1.7168 H         1 <0>         0.1766
     39 H11         0.1366   -2.3193   -4.1763 H         1 <0>         0.4214
     40 H12        -3.1968   -2.9681   -5.0124 H         1 <0>         0.1252
     41 H13        -3.9627   -4.5334   -6.7497 H         1 <0>         0.1245
     42 H14         0.0084   -6.0780   -7.1084 H         1 <0>         0.1256
     43 H15         0.7760   -4.5062   -5.3776 H         1 <0>         0.1231
     44 H16        -1.3528   -7.0922   -9.6251 H         1 <0>         0.0606
     45 H17        -0.6135   -7.2983   -8.0163 H         1 <0>         0.0823
     46 H18        -1.5866   -9.4330   -8.9375 H         1 <0>         0.0725
     47 H19        -2.3229   -8.9376   -7.3939 H         1 <0>         0.0662
     48 H20        -3.4741   -8.3717  -10.1640 H         1 <0>         0.0629
     49 H21        -4.0475   -9.6344   -9.0486 H         1 <0>         0.0639
     50 H22        -5.4598   -7.6138   -8.8695 H         1 <0>         0.0728
     51 H23        -4.5643   -7.8849   -7.3545 H         1 <0>         0.0662
     52 H24        -4.4142   -5.5212   -7.9423 H         1 <0>         0.0829
     53 H25        -3.8338   -5.9321   -9.5768 H         1 <0>         0.0603
     54 H26        -3.8491    1.4053    2.5798 H         1 <0>         0.0580
     55 H27        -2.9746    0.1753    3.5236 H         1 <0>         0.0580
     56 H28        -2.4697    1.8805    3.5995 H         1 <0>         0.1030
@<TRIPOS>BOND
     1    1    2 1
     2    1   29 1
     3    1   30 1
     4    1   31 1
     5    2    3 1
     6    2    4 1
     7    2   32 1
     8    3   33 1
     9    3   34 1
    10    3   35 1
    11    4    9 ar
    12    4    5 ar
    13    5    6 ar
    14    5   27 1
    15    6    7 ar
    16    6   36 1
    17    7    8 ar
    18    7   37 1
    19    8   13 ar
    20    8    9 ar
    21    9   10 ar
    22   10   11 ar
    23   11   12 ar
    24   11   14 1
    25   12   13 ar
    26   13   38 1
    27   14   15 1
    28   14   39 1
    29   15   20 ar
    30   15   16 ar
    31   16   17 ar
    32   16   40 1
    33   17   18 ar
    34   17   41 1
    35   18   19 ar
    36   18   21 1
    37   19   20 ar
    38   19   42 1
    39   20   43 1
    40   21   26 1
    41   21   22 1
    42   22   23 1
    43   22   44 1
    44   22   45 1
    45   23   24 1
    46   23   46 1
    47   23   47 1
    48   24   25 1
    49   24   48 1
    50   24   49 1
    51   25   26 1
    52   25   50 1
    53   25   51 1
    54   26   52 1
    55   26   53 1
    56   27   28 1
    57   28   54 1
    58   28   55 1
    59   28   56 1
@<TRIPOS>MOLECULE
CHEMBL361621
   57    60     0     0     0
SMALL
USER_CHARGES

@<TRIPOS>ATOM
      1 C1         -0.4622    2.0456   -0.5504 C.3       1 <0>        -0.1460
      2 C2         -0.2535    0.5396   -0.3793 C.3       1 <0>        -0.0370
      3 C3          0.5698    0.2790    0.8837 C.3       1 <0>        -0.1458
      4 C4         -1.5918   -0.1422   -0.2561 C.ar      1 <0>        -0.1218
      5 C5         -2.4514    0.1945    0.7673 C.ar      1 <0>         0.1842
      6 C6         -3.6958   -0.4316    0.8923 C.ar      1 <0>        -0.1991
      7 C7         -4.0888   -1.3880    0.0075 C.ar      1 <0>        -0.0267
      8 C8         -3.2372   -1.7532   -1.0458 C.ar      1 <0>        -0.2253
      9 C9         -1.9746   -1.1187   -1.1837 C.ar      1 <0>         0.2384
     10 N1         -1.1794   -1.4796   -2.1997 N.ar      1 <0>        -0.5435
     11 C10        -1.5732   -2.4039   -3.0541 C.ar      1 <0>         0.5541
     12 N2         -2.7530   -3.0144   -2.9579 N.ar      1 <0>        -0.5684
     13 C11        -3.5966   -2.7358   -1.9858 C.ar      1 <0>         0.2491
     14 N3         -0.7269   -2.7530   -4.0925 N.pl3     1 <0>        -0.6374
     15 C12        -1.1616   -3.6423   -5.0798 C.ar      1 <0>         0.2326
     16 C13        -2.4933   -3.6471   -5.4747 C.ar      1 <0>        -0.1025
     17 C14        -2.9195   -4.5268   -6.4502 C.ar      1 <0>        -0.0642
     18 C15        -2.0222   -5.4026   -7.0334 C.ar      1 <0>        -0.0841
     19 C16        -0.6958   -5.4008   -6.6423 C.ar      1 <0>        -0.0593
     20 C17        -0.2617   -4.5191   -5.6720 C.ar      1 <0>        -0.1378
     21 N4         -2.4571   -6.2922   -8.0204 N.4       1 <0>        -0.3117
     22 C18        -2.2220   -7.6702   -7.5728 C.3       1 <0>        -0.0068
     23 C19        -2.7699   -8.6490   -8.6137 C.3       1 <0>        -0.1459
     24 C20        -2.0583   -8.4161   -9.9496 C.3       1 <0>        -0.1394
     25 C21        -2.2479   -6.9557  -10.3699 C.3       1 <0>        -0.1459
     26 C22        -1.7194   -6.0397   -9.2640 C.3       1 <0>        -0.0067
     27 O1         -2.0856    1.1450    1.6652 O.3       1 <0>        -0.2963
     28 C23        -3.0191    1.4505    2.7032 C.3       1 <0>         0.0169
     29 H1          0.5058    2.5387   -0.6395 H         1 <0>         0.0583
     30 H2         -1.0487    2.2312   -1.4501 H         1 <0>         0.0479
     31 H3         -0.9923    2.4397    0.3167 H         1 <0>         0.0675
     32 H4          0.2766    0.1454   -1.2463 H         1 <0>         0.0884
     33 H5          0.0397    0.6731    1.7507 H         1 <0>         0.0670
     34 H6          0.7184   -0.7939    1.0056 H         1 <0>         0.0481
     35 H7          1.5378    0.7721    0.7946 H         1 <0>         0.0584
     36 H8         -4.3535   -0.1525    1.7021 H         1 <0>         0.1427
     37 H9         -5.0521   -1.8641    0.1159 H         1 <0>         0.1434
     38 H10        -4.5491   -3.2405   -1.9200 H         1 <0>         0.1828
     39 H11         0.1678   -2.3807   -4.1350 H         1 <0>         0.4327
     40 H12        -3.1948   -2.9638   -5.0191 H         1 <0>         0.1568
     41 H13        -3.9548   -4.5311   -6.7577 H         1 <0>         0.1458
     42 H14         0.0023   -6.0863   -7.0995 H         1 <0>         0.1438
     43 H15         0.7754   -4.5148   -5.3704 H         1 <0>         0.1494
     44 H16        -1.1516   -7.8339   -7.4488 H         1 <0>         0.1264
     45 H17        -2.7264   -7.8334   -6.6204 H         1 <0>         0.1302
     46 H18        -2.5928   -9.6716   -8.2804 H         1 <0>         0.1122
     47 H19        -3.8404   -8.4863   -8.7383 H         1 <0>         0.0877
     48 H20        -0.9950   -8.6282   -9.8381 H         1 <0>         0.0815
     49 H21        -2.4844   -9.0721  -10.7087 H         1 <0>         0.0941
     50 H22        -1.6977   -6.7680  -11.2919 H         1 <0>         0.1123
     51 H23        -3.3076   -6.7579  -10.5309 H         1 <0>         0.0877
     52 H24        -1.8526   -4.9992   -9.5601 H         1 <0>         0.1301
     53 H25        -0.6596   -6.2381   -9.1039 H         1 <0>         0.1266
     54 H26        -3.2161    0.5534    3.2902 H         1 <0>         0.0612
     55 H27        -2.6037    2.2236    3.3495 H         1 <0>         0.1081
     56 H28        -3.9496    1.8073    2.2616 H         1 <0>         0.0611
     57 H29        -3.4438   -6.1570   -8.1824 H         1 <0>         0.4239
@<TRIPOS>BOND
     1    1    2 1
     2    1   29 1
     3    1   30 1
     4    1   31 1
     5    2    3 1
     6    2    4 1
     7    2   32 1
     8    3   33 1
     9    3   34 1
    10    3   35 1
    11    4    9 ar
    12    4    5 ar
    13    5    6 ar
    14    5   27 1
    15    6    7 ar
    16    6   36 1
    17    7    8 ar
    18    7   37 1
    19    8   13 ar
    20    8    9 ar
    21    9   10 ar
    22   10   11 ar
    23   11   12 ar
    24   11   14 1
    25   12   13 ar
    26   13   38 1
    27   14   15 1
    28   14   39 1
    29   15   20 ar
    30   15   16 ar
    31   16   17 ar
    32   16   40 1
    33   17   18 ar
    34   17   41 1
    35   18   19 ar
    36   18   21 1
    37   19   20 ar
    38   19   42 1
    39   20   43 1
    40   21   26 1
    41   21   22 1
    42   21   57 1
    43   22   23 1
    44   22   44 1
    45   22   45 1
    46   23   24 1
    47   23   46 1
    48   23   47 1
    49   24   25 1
    50   24   48 1
    51   24   49 1
    52   25   26 1
    53   25   50 1
    54   25   51 1
    55   26   52 1
    56   26   53 1
    57   27   28 1
    58   28   54 1
    59   28   55 1
    60   28   56 1
@<TRIPOS>MOLECULE
CHEMBL370724
   48    51     0     0     0
SMALL
USER_CHARGES

@<TRIPOS>ATOM
      1 C1         -0.0187    1.5258    0.0104 C.3       1 <0>        -0.1458
      2 C2          0.0021   -0.0041    0.0020 C.3       1 <0>        -0.0595
      3 C3         -1.4117   -0.5257    0.0127 C.ar      1 <0>        -0.1017
      4 C4         -2.2581   -0.2032    1.0577 C.ar      1 <0>        -0.0489
      5 C5         -3.5544   -0.6795    1.0706 C.ar      1 <0>        -0.1536
      6 C6         -4.0076   -1.4834    0.0324 C.ar      1 <0>         0.2189
      7 C7         -3.1548   -1.8054   -1.0158 C.ar      1 <0>        -0.1723
      8 C8         -1.8615   -1.3211   -1.0253 C.ar      1 <0>        -0.0652
      9 N1         -5.3179   -1.9673    0.0425 N.pl3     1 <0>        -0.9306
     10 C9         -6.1793   -2.1739    1.2207 C.3       1 <0>         0.0620
     11 C10        -7.6646   -2.0068    0.8494 C.3       1 <0>        -0.1305
     12 C11        -7.8428   -2.8084   -0.4752 C.3       1 <0>        -0.5890
     13 S1         -6.2358   -2.4252   -1.2832 S.o2      1 <0>         2.5542
     14 O1         -6.3419   -1.2613   -2.0916 O.2       1 <0>        -0.9419
     15 O2         -5.6266   -3.6109   -1.7753 O.2       1 <0>        -0.9439
     16 C12         0.7309   -0.5033    1.2229 C.2       1 <0>         0.5266
     17 O3          0.1586   -1.2128    2.0230 O.2       1 <0>        -0.4985
     18 N2          2.0187   -0.1613    1.4257 N.am      1 <0>        -0.6363
     19 C13         2.6966   -0.6256    2.5612 C.2       1 <0>         0.3039
     20 C14         2.1608   -1.4536    3.5606 C.2       1 <0>        -0.2590
     21 C15         3.1282   -1.6742    4.4795 C.2       1 <0>         0.1301
     22 N3          4.2356   -1.0133    4.0815 N.pl3     1 <0>        -0.4676
     23 H1          5.0856   -0.9928    4.5484 H         1 <0>         0.4389
     24 N4          3.9446   -0.3671    2.8733 N.2       1 <0>        -0.3189
     25 C16         2.9934   -2.5093    5.7267 C.3       1 <0>        -0.0982
     26 C17         3.7795   -2.0658    6.9622 C.3       1 <0>        -0.1704
     27 C18         4.2191   -3.3051    6.1799 C.3       1 <0>        -0.1701
     28 H2          1.0039    1.9031    0.0027 H         1 <0>         0.0653
     29 H3         -0.5459    1.8868   -0.8726 H         1 <0>         0.0773
     30 H4         -0.5289    1.8773    0.9072 H         1 <0>         0.0660
     31 H5          0.5123   -0.3556   -0.8948 H         1 <0>         0.1123
     32 H6         -1.9050    0.4216    1.8647 H         1 <0>         0.1254
     33 H7         -4.2148   -0.4276    1.8872 H         1 <0>         0.1269
     34 H8         -3.5039   -2.4305   -1.8243 H         1 <0>         0.1273
     35 H9         -1.1992   -1.5674   -1.8420 H         1 <0>         0.1308
     36 H10        -6.0180   -3.1787    1.6112 H         1 <0>         0.0891
     37 H11        -5.9174   -1.4460    1.9886 H         1 <0>         0.1035
     38 H12        -8.2996   -2.4223    1.6319 H         1 <0>         0.1198
     39 H13        -7.8989   -0.9543    0.6896 H         1 <0>         0.0990
     40 H14        -7.9499   -3.8758   -0.2821 H         1 <0>         0.1478
     41 H15        -8.6797   -2.4273   -1.0604 H         1 <0>         0.1480
     42 H16         2.4764    0.4061    0.7859 H         1 <0>         0.4161
     43 H17         1.1546   -1.8449    3.5902 H         1 <0>         0.1730
     44 H18         2.0136   -2.9590    5.8878 H         1 <0>         0.1340
     45 H19         4.3941   -1.1701    6.8729 H         1 <0>         0.0947
     46 H20         3.3168   -2.2236    7.9364 H         1 <0>         0.1078
     47 H21         4.0456   -4.2781    6.6396 H         1 <0>         0.1079
     48 H22         5.1229   -3.2246    5.5760 H         1 <0>         0.0949
@<TRIPOS>BOND
     1    1    2 1
     2    1   28 1
     3    1   29 1
     4    1   30 1
     5    2    3 1
     6    2   16 1
     7    2   31 1
     8    3    8 ar
     9    3    4 ar
    10    4    5 ar
    11    4   32 1
    12    5    6 ar
    13    5   33 1
    14    6    7 ar
    15    6    9 1
    16    7    8 ar
    17    7   34 1
    18    8   35 1
    19    9   13 1
    20    9   10 1
    21   10   11 1
    22   10   36 1
    23   10   37 1
    24   11   12 1
    25   11   38 1
    26   11   39 1
    27   12   13 1
    28   12   40 1
    29   12   41 1
    30   13   14 2
    31   13   15 2
    32   16   17 2
    33   16   18 am
    34   18   19 1
    35   18   42 1
    36   19   24 2
    37   19   20 1
    38   20   21 2
    39   20   43 1
    40   21   22 1
    41   21   25 1
    42   22   23 1
    43   22   24 1
    44   25   27 1
    45   25   26 1
    46   25   44 1
    47   26   27 1
    48   26   45 1
    49   26   46 1
    50   27   47 1
    51   27   48 1
@<TRIPOS>MOLECULE
CHEMBL370724
   48    51     0     0     0
SMALL
USER_CHARGES

@<TRIPOS>ATOM
      1 C1         -0.0187    1.5258    0.0104 C.3       1 <0>        -0.1458
      2 C2          0.0021   -0.0041    0.0020 C.3       1 <0>        -0.0575
      3 C3          0.7074   -0.4901   -1.2379 C.ar      1 <0>        -0.1047
      4 C4          0.2204   -0.1501   -2.4867 C.ar      1 <0>        -0.0489
      5 C5          0.8644   -0.5938   -3.6250 C.ar      1 <0>        -0.1533
      6 C6          2.0026   -1.3824   -3.5144 C.ar      1 <0>         0.2209
      7 C7          2.4891   -1.7221   -2.2584 C.ar      1 <0>        -0.1722
      8 C8          1.8435   -1.2703   -1.1242 C.ar      1 <0>        -0.0644
      9 N1          2.6561   -1.8332   -4.6636 N.pl3     1 <0>        -0.9309
     10 C9          2.0694   -2.0223   -6.0026 C.3       1 <0>         0.0618
     11 C10         3.1306   -1.8167   -7.0996 C.3       1 <0>        -0.1305
     12 C11         4.3793   -2.6089   -6.6078 C.3       1 <0>        -0.5885
     13 S1          4.2701   -2.2633   -4.8047 S.o2      1 <0>         2.5540
     14 O1          5.0050   -1.0944   -4.4692 O.2       1 <0>        -0.9419
     15 O2          4.4103   -3.4622   -4.0550 O.2       1 <0>        -0.9437
     16 C12        -1.4117   -0.5257    0.0127 C.2       1 <0>         0.5242
     17 O3         -1.8076   -1.2235   -0.8970 O.2       1 <0>        -0.4881
     18 N2         -2.2363   -0.2169    1.0331 N.am      1 <0>        -0.6518
     19 C13        -3.5447   -0.6996    1.0430 C.2       1 <0>         0.3073
     20 C14        -4.1183   -1.4880    0.0932 C.2       1 <0>        -0.2700
     21 C15        -5.4348   -1.7430    0.4867 C.2       1 <0>         0.1216
     22 N3         -5.6489   -1.1351    1.6255 N.2       1 <0>        -0.2796
     23 H1         -4.3461    0.0534    2.8052 H         1 <0>         0.4364
     24 N4         -4.4725   -0.4742    2.0012 N.pl3     1 <0>        -0.4912
     25 C16        -6.4368   -2.5752   -0.2713 C.3       1 <0>        -0.0848
     26 C17        -6.1353   -2.8796   -1.7401 C.3       1 <0>        -0.1631
     27 C18        -7.2381   -1.8835   -1.3760 C.3       1 <0>        -0.1634
     28 H2          1.0039    1.9031    0.0027 H         1 <0>         0.0787
     29 H3         -0.5459    1.8868   -0.8726 H         1 <0>         0.0668
     30 H4         -0.5289    1.8773    0.9072 H         1 <0>         0.0630
     31 H5          0.5293   -0.3651    0.8851 H         1 <0>         0.1124
     32 H6         -0.6647    0.4628   -2.5719 H         1 <0>         0.1251
     33 H7          0.4833   -0.3282   -4.6000 H         1 <0>         0.1277
     34 H8          3.3736   -2.3354   -2.1690 H         1 <0>         0.1278
     35 H9          2.2238   -1.5303   -0.1474 H         1 <0>         0.1307
     36 H10         1.6663   -3.0322   -6.0783 H         1 <0>         0.0897
     37 H11         1.2622   -1.3039   -6.1453 H         1 <0>         0.1037
     38 H12         2.7767   -2.2189   -8.0489 H         1 <0>         0.1203
     39 H13         3.3697   -0.7581   -7.2015 H         1 <0>         0.0991
     40 H14         4.2822   -3.6739   -6.8184 H         1 <0>         0.1481
     41 H15         5.2984   -2.2049   -7.0321 H         1 <0>         0.1482
     42 H16        -1.9197    0.3412    1.7606 H         1 <0>         0.4122
     43 H17        -3.6410   -1.8515   -0.8048 H         1 <0>         0.1740
     44 H18        -6.9423   -3.3467    0.3094 H         1 <0>         0.1213
     45 H19        -5.2123   -2.4779   -2.1582 H         1 <0>         0.1014
     46 H20        -6.4425   -3.8517   -2.1259 H         1 <0>         0.1018
     47 H21        -8.2708   -2.2003   -1.5223 H         1 <0>         0.1010
     48 H22        -7.0406   -0.8265   -1.5545 H         1 <0>         0.0949
@<TRIPOS>BOND
     1    1    2 1
     2    1   28 1
     3    1   29 1
     4    1   30 1
     5    2    3 1
     6    2   16 1
     7    2   31 1
     8    3    8 ar
     9    3    4 ar
    10    4    5 ar
    11    4   32 1
    12    5    6 ar
    13    5   33 1
    14    6    7 ar
    15    6    9 1
    16    7    8 ar
    17    7   34 1
    18    8   35 1
    19    9   13 1
    20    9   10 1
    21   10   11 1
    22   10   36 1
    23   10   37 1
    24   11   12 1
    25   11   38 1
    26   11   39 1
    27   12   13 1
    28   12   40 1
    29   12   41 1
    30   13   14 2
    31   13   15 2
    32   16   17 2
    33   16   18 am
    34   18   42 1
    35   18   19 1
    36   19   20 2
    37   19   24 1
    38   20   21 1
    39   20   43 1
    40   21   22 2
    41   21   25 1
    42   22   24 1
    43   23   24 1
    44   25   27 1
    45   25   26 1
    46   25   44 1
    47   26   27 1
    48   26   45 1
    49   26   46 1
    50   27   47 1
    51   27   48 1
@<TRIPOS>MOLECULE
CHEMBL370724
   48    51     0     0     0
SMALL
USER_CHARGES

@<TRIPOS>ATOM
      1 C1         -0.0187    1.5258    0.0104 C.3       1 <0>        -0.1451
      2 C2          0.0021   -0.0041    0.0020 C.3       1 <0>        -0.0594
      3 C3          0.7309   -0.5033    1.2229 C.ar      1 <0>        -0.1021
      4 C4          0.2614   -0.1862    2.4844 C.ar      1 <0>        -0.0484
      5 C5          0.9270   -0.6420    3.6053 C.ar      1 <0>        -0.1538
      6 C6          2.0692   -1.4199    3.4646 C.ar      1 <0>         0.2191
      7 C7          2.5381   -1.7366    2.1959 C.ar      1 <0>        -0.1728
      8 C8          1.8645   -1.2821    1.0792 C.ar      1 <0>        -0.0649
      9 N1          2.7450   -1.8822    4.5962 N.pl3     1 <0>        -0.9307
     10 C9          2.7352   -1.2834    5.9431 C.3       1 <0>         0.0624
     11 C10         2.9435   -2.3611    7.0233 C.3       1 <0>        -0.1309
     12 C11         4.1219   -3.2361    6.4993 C.3       1 <0>        -0.5890
     13 S1          3.7278   -3.2359    4.7029 S.o2      1 <0>         2.5536
     14 O1          2.8944   -4.3373    4.3687 O.2       1 <0>        -0.9405
     15 O2          4.8836   -2.9273    3.9360 O.2       1 <0>        -0.9443
     16 C12        -1.4117   -0.5257    0.0127 C.2       1 <0>         0.5257
     17 O3         -1.7902   -1.2332    0.9223 O.2       1 <0>        -0.4975
     18 N2         -2.2556   -0.2060   -0.9884 N.am      1 <0>        -0.6363
     19 C13        -3.5705   -0.6911   -0.9784 C.2       1 <0>         0.3038
     20 C14        -4.1399   -1.5104    0.0095 C.2       1 <0>        -0.2588
     21 C15        -5.4214   -1.7579   -0.3446 C.2       1 <0>         0.1301
     22 N3         -5.6587   -1.1219   -1.5112 N.pl3     1 <0>        -0.4677
     23 H1         -6.4960   -1.1236   -2.0010 H         1 <0>         0.4389
     24 N4         -4.4863   -0.4545   -1.8879 N.2       1 <0>        -0.3191
     25 C16        -6.4089   -2.5955    0.4262 C.3       1 <0>        -0.0982
     26 C17        -7.4349   -3.3967   -0.3777 C.3       1 <0>        -0.1703
     27 C18        -7.8748   -2.1578    0.4050 C.3       1 <0>        -0.1701
     28 H2          1.0039    1.9031    0.0027 H         1 <0>         0.0769
     29 H3         -0.5459    1.8868   -0.8726 H         1 <0>         0.0652
     30 H4         -0.5289    1.8773    0.9072 H         1 <0>         0.0658
     31 H5          0.5123   -0.3556   -0.8948 H         1 <0>         0.1123
     32 H6         -0.6265    0.4189    2.5931 H         1 <0>         0.1255
     33 H7          0.5599   -0.3937    4.5903 H         1 <0>         0.1270
     34 H8          3.4261   -2.3408    2.0830 H         1 <0>         0.1273
     35 H9          2.2260   -1.5316    0.0926 H         1 <0>         0.1308
     36 H10         3.5345   -0.5457    6.0135 H         1 <0>         0.0890
     37 H11         1.7777   -0.7895    6.1091 H         1 <0>         0.1034
     38 H12         3.2091   -1.8982    7.9738 H         1 <0>         0.1198
     39 H13         2.0432   -2.9654    7.1340 H         1 <0>         0.0992
     40 H14         5.0849   -2.7659    6.6985 H         1 <0>         0.1477
     41 H15         4.0822   -4.2442    6.9120 H         1 <0>         0.1480
     42 H16        -1.9529    0.3598   -1.7158 H         1 <0>         0.4160
     43 H17        -3.6427   -1.8777    0.8951 H         1 <0>         0.1731
     44 H18        -6.0302   -3.0416    1.3458 H         1 <0>         0.1342
     45 H19        -7.3957   -3.3179   -1.4641 H         1 <0>         0.0947
     46 H20        -7.7313   -4.3702    0.0128 H         1 <0>         0.1079
     47 H21        -8.4606   -2.3163    1.3105 H         1 <0>         0.1077
     48 H22        -8.1249   -1.2640   -0.1665 H         1 <0>         0.0947
@<TRIPOS>BOND
     1    1    2 1
     2    1   28 1
     3    1   29 1
     4    1   30 1
     5    2    3 1
     6    2   16 1
     7    2   31 1
     8    3    8 ar
     9    3    4 ar
    10    4    5 ar
    11    4   32 1
    12    5    6 ar
    13    5   33 1
    14    6    7 ar
    15    6    9 1
    16    7    8 ar
    17    7   34 1
    18    8   35 1
    19    9   13 1
    20    9   10 1
    21   10   11 1
    22   10   36 1
    23   10   37 1
    24   11   12 1
    25   11   38 1
    26   11   39 1
    27   12   13 1
    28   12   40 1
    29   12   41 1
    30   13   14 2
    31   13   15 2
    32   16   17 2
    33   16   18 am
    34   18   19 1
    35   18   42 1
    36   19   24 2
    37   19   20 1
    38   20   21 2
    39   20   43 1
    40   21   22 1
    41   21   25 1
    42   22   23 1
    43   22   24 1
    44   25   27 1
    45   25   26 1
    46   25   44 1
    47   26   27 1
    48   26   45 1
    49   26   46 1
    50   27   47 1
    51   27   48 1
@<TRIPOS>MOLECULE
CHEMBL370724
   48    51     0     0     0
SMALL
USER_CHARGES

@<TRIPOS>ATOM
      1 C1         -0.0187    1.5258    0.0104 C.3       1 <0>        -0.1452
      2 C2          0.0021   -0.0041    0.0020 C.3       1 <0>        -0.0574
      3 C3         -1.4117   -0.5257    0.0127 C.ar      1 <0>        -0.1052
      4 C4         -2.2745   -0.2013   -1.0181 C.ar      1 <0>        -0.0483
      5 C5         -3.5708   -0.6776   -1.0115 C.ar      1 <0>        -0.1535
      6 C6         -4.0076   -1.4834    0.0323 C.ar      1 <0>         0.2211
      7 C7         -3.1383   -1.8073    1.0663 C.ar      1 <0>        -0.1728
      8 C8         -1.8416   -1.3322    1.0505 C.ar      1 <0>        -0.0643
      9 N1         -5.3181   -1.9665    0.0425 N.pl3     1 <0>        -0.9309
     10 C9         -6.4890   -1.3723   -0.6275 C.3       1 <0>         0.0623
     11 C10        -7.5119   -2.4587   -1.0087 C.3       1 <0>        -0.1310
     12 C11        -7.6333   -3.3612    0.2561 C.3       1 <0>        -0.5886
     13 S1         -5.8806   -3.3449    0.8130 S.o2      1 <0>         2.5532
     14 O1         -5.1575   -4.4237    0.2365 O.2       1 <0>        -0.9400
     15 O2         -5.7988   -3.0626    2.2033 O.2       1 <0>        -0.9443
     16 C12         0.7074   -0.4901   -1.2379 C.2       1 <0>         0.5233
     17 O3          0.1199   -1.1911   -2.0345 O.2       1 <0>        -0.4870
     18 N2          1.9912   -0.1458   -1.4616 N.am      1 <0>        -0.6518
     19 C13         2.6440   -0.5956   -2.6091 C.2       1 <0>         0.3071
     20 C14         2.1094   -1.3833   -3.5819 C.2       1 <0>        -0.2698
     21 C15         3.0956   -1.5982   -4.5485 C.2       1 <0>         0.1218
     22 N3          4.1803   -0.9677   -4.1768 N.2       1 <0>        -0.2798
     23 H1          4.5483    0.2201   -2.4576 H         1 <0>         0.4363
     24 N4          3.9215   -0.3234   -2.9603 N.pl3     1 <0>        -0.4913
     25 C16         2.9371   -2.4165   -5.8040 C.3       1 <0>        -0.0851
     26 C17         1.7473   -3.3756   -5.8766 C.3       1 <0>        -0.1632
     27 C18         3.1636   -3.9258   -5.6968 C.3       1 <0>        -0.1634
     28 H2          1.0039    1.9031    0.0027 H         1 <0>         0.0630
     29 H3         -0.5459    1.8868   -0.8726 H         1 <0>         0.0668
     30 H4         -0.5289    1.8773    0.9072 H         1 <0>         0.0782
     31 H5          0.5293   -0.3651    0.8851 H         1 <0>         0.1123
     32 H6         -1.9344    0.4255   -1.8292 H         1 <0>         0.1254
     33 H7         -4.2442   -0.4237   -1.8167 H         1 <0>         0.1278
     34 H8         -3.4749   -2.4333    1.8795 H         1 <0>         0.1278
     35 H9         -1.1639   -1.5873    1.8518 H         1 <0>         0.1306
     36 H10        -6.9609   -0.6552    0.0441 H         1 <0>         0.0892
     37 H11        -6.1620   -0.8552   -1.5296 H         1 <0>         0.1036
     38 H12        -8.4749   -2.0060   -1.2447 H         1 <0>         0.1202
     39 H13        -7.1484   -3.0406   -1.8556 H         1 <0>         0.0996
     40 H14        -8.2943   -2.9160    0.9997 H         1 <0>         0.1478
     41 H15        -7.9552   -4.3694   -0.0048 H         1 <0>         0.1484
     42 H16         2.4610    0.4148   -0.8245 H         1 <0>         0.4121
     43 H17         1.1025   -1.7732   -3.6029 H         1 <0>         0.1741
     44 H18         3.2454   -1.9256   -6.7271 H         1 <0>         0.1213
     45 H19         1.0792   -3.4148   -5.0163 H         1 <0>         0.1018
     46 H20         1.2724   -3.5159   -6.8476 H         1 <0>         0.1019
     47 H21         3.6205   -4.4280   -6.5495 H         1 <0>         0.1011
     48 H22         3.4272   -4.3269   -4.7182 H         1 <0>         0.0951
@<TRIPOS>BOND
     1    1    2 1
     2    1   28 1
     3    1   29 1
     4    1   30 1
     5    2    3 1
     6    2   16 1
     7    2   31 1
     8    3    8 ar
     9    3    4 ar
    10    4    5 ar
    11    4   32 1
    12    5    6 ar
    13    5   33 1
    14    6    7 ar
    15    6    9 1
    16    7    8 ar
    17    7   34 1
    18    8   35 1
    19    9   13 1
    20    9   10 1
    21   10   11 1
    22   10   36 1
    23   10   37 1
    24   11   12 1
    25   11   38 1
    26   11   39 1
    27   12   13 1
    28   12   40 1
    29   12   41 1
    30   13   14 2
    31   13   15 2
    32   16   17 2
    33   16   18 am
    34   18   42 1
    35   18   19 1
    36   19   20 2
    37   19   24 1
    38   20   21 1
    39   20   43 1
    40   21   22 2
    41   21   25 1
    42   22   24 1
    43   23   24 1
    44   25   27 1
    45   25   26 1
    46   25   44 1
    47   26   27 1
    48   26   45 1
    49   26   46 1
    50   27   47 1
    51   27   48 1
@<TRIPOS>MOLECULE
CHEMBL1080902
   40    42     0     0     0
SMALL
USER_CHARGES

@<TRIPOS>ATOM
      1 C1         -0.0173    1.4248    0.0099 C.3       1 <0>         0.0240
      2 O1          0.0021   -0.0041    0.0020 O.3       1 <0>        -0.3139
      3 C2          0.6257   -0.6182    1.0412 C.ar      1 <0>         0.1504
      4 C3          1.2018    0.1419    2.0504 C.ar      1 <0>        -0.2147
      5 C4          1.8357   -0.4780    3.1062 C.ar      1 <0>        -0.0335
      6 C5          1.8976   -1.8705    3.1600 C.ar      1 <0>        -0.0766
      7 C6          1.3174   -2.6311    2.1448 C.ar      1 <0>        -0.0403
      8 C7          0.6805   -2.0047    1.0946 C.ar      1 <0>        -0.1558
      9 C8          2.5784   -2.5401    4.2926 C.2       1 <0>         0.2225
     10 N1          3.1550   -1.9517    5.3059 N.2       1 <0>        -0.2301
     11 N2          3.6972   -2.8826    6.1910 N.am      1 <0>        -0.5515
     12 C9          3.4721   -4.1360    5.7489 C.2       1 <0>         0.5168
     13 O2          3.8138   -5.1747    6.2874 O.2       1 <0>        -0.5234
     14 C10         2.7249   -3.9978    4.4881 C.2       1 <0>        -0.1034
     15 N3          2.2853   -4.9628    3.7037 N.2       1 <0>        -0.0690
     16 N4          2.4966   -6.1960    4.0178 N.pl3     1 <0>        -0.4610
     17 C11         2.0316   -7.2165    3.1882 C.ar      1 <0>         0.1895
     18 C12         1.3451   -6.9057    2.0195 C.ar      1 <0>        -0.1666
     19 C13         0.8851   -7.9164    1.1988 C.ar      1 <0>        -0.0493
     20 C14         1.1057   -9.2388    1.5358 C.ar      1 <0>        -0.2197
     21 C15         1.7902   -9.5555    2.7009 C.ar      1 <0>         0.1599
     22 C16         2.2585   -8.5447    3.5253 C.ar      1 <0>        -0.1796
     23 O3          2.0053  -10.8562    3.0307 O.3       1 <0>        -0.3137
     24 C17         1.4991  -11.8456    2.1323 C.3       1 <0>         0.0259
     25 H1          1.0053    1.8021    0.0021 H         1 <0>         0.0588
     26 H2         -0.5445    1.7859   -0.8732 H         1 <0>         0.1026
     27 H3         -0.5275    1.7763    0.9067 H         1 <0>         0.0588
     28 H4          1.1535    1.2200    2.0080 H         1 <0>         0.1356
     29 H5          2.2842    0.1138    3.8904 H         1 <0>         0.1382
     30 H6          1.3638   -3.7094    2.1832 H         1 <0>         0.1462
     31 H7          0.2275   -2.5930    0.3103 H         1 <0>         0.1388
     32 H8          4.1695   -2.6600    7.0085 H         1 <0>         0.4446
     33 H9          2.9789   -6.4136    4.8308 H         1 <0>         0.4149
     34 H10         1.1714   -5.8734    1.7538 H         1 <0>         0.1408
     35 H11         0.3515   -7.6733    0.2918 H         1 <0>         0.1375
     36 H12         0.7446  -10.0268    0.8916 H         1 <0>         0.1349
     37 H13         2.7952   -8.7892    4.4300 H         1 <0>         0.1397
     38 H14         1.7384  -12.8385    2.5131 H         1 <0>         0.1036
     39 H15         0.4176  -11.7399    2.0474 H         1 <0>         0.0591
     40 H16         1.9553  -11.7129    1.1513 H         1 <0>         0.0591
@<TRIPOS>BOND
     1    1    2 1
     2    1   25 1
     3    1   26 1
     4    1   27 1
     5    2    3 1
     6    3    8 ar
     7    3    4 ar
     8    4    5 ar
     9    4   28 1
    10    5    6 ar
    11    5   29 1
    12    6    7 ar
    13    6    9 1
    14    7    8 ar
    15    7   30 1
    16    8   31 1
    17    9   14 1
    18    9   10 2
    19   10   11 1
    20   11   12 am
    21   11   32 1
    22   12   13 2
    23   12   14 1
    24   14   15 2
    25   15   16 1
    26   16   17 1
    27   16   33 1
    28   17   22 ar
    29   17   18 ar
    30   18   19 ar
    31   18   34 1
    32   19   20 ar
    33   19   35 1
    34   20   21 ar
    35   20   36 1
    36   21   22 ar
    37   21   23 1
    38   22   37 1
    39   23   24 1
    40   24   38 1
    41   24   39 1
    42   24   40 1
@<TRIPOS>MOLECULE
CHEMBL186371
   36    39     0     0     0
SMALL
USER_CHARGES

@<TRIPOS>ATOM
      1 C1          0.1552    1.3760    0.6461 C.ar      1 <0>        -0.0335
      2 C2          1.1665    2.0983    0.0528 C.ar      1 <0>        -0.1509
      3 C3          2.2151    1.4368   -0.5784 C.ar      1 <0>         0.1174
      4 C4          2.2431    0.0328   -0.6109 C.ar      1 <0>        -0.0441
      5 C5          1.2024   -0.6895    0.0005 C.ar      1 <0>         0.2508
      6 C6          0.1716   -0.0112    0.6208 C.ar      1 <0>        -0.1542
      7 N1          1.2109   -2.0867   -0.0206 N.am      1 <0>        -0.6677
      8 C7          0.0540   -2.7694    0.0889 C.2       1 <0>         0.7018
      9 O1         -1.0051   -2.1725    0.1030 O.2       1 <0>        -0.5017
     10 N2          0.0712   -4.1138    0.1829 N.am      1 <0>        -0.6251
     11 C8         -1.1219   -4.8178    0.2958 C.2       1 <0>         0.2770
     12 N3         -2.3498   -4.3466    0.3219 N.2       1 <0>        -0.5133
     13 C9         -3.3883   -5.1543    0.4349 C.2       1 <0>         0.0612
     14 C10        -3.1296   -6.4820    0.5220 C.2       1 <0>        -0.1945
     15 S1         -1.3468   -6.4807    0.4251 S.3       1 <0>         0.1225
     16 C11        -4.0840   -7.6403    0.6573 C.3       1 <0>        -0.0208
     17 C12        -3.5680   -8.7595    1.5770 C.3       1 <0>        -0.1349
     18 C13        -4.1546   -9.7558    0.5630 C.3       1 <0>        -0.1426
     19 C14        -3.9910   -8.6530   -0.4963 C.3       1 <0>        -0.1337
     20 N4          3.3539   -0.3397   -1.2762 N.2       1 <0>        -0.2138
     21 N5          4.0146    0.6960   -1.6578 N.2       1 <0>        -0.0025
     22 N6          3.3424    1.8558   -1.2446 N.pl3     1 <0>        -0.4976
     23 H1          3.6183    2.7729   -1.3991 H         1 <0>         0.4504
     24 H2         -0.6547    1.8933    1.1389 H         1 <0>         0.1452
     25 H3          1.1454    3.1778    0.0771 H         1 <0>         0.1367
     26 H4         -0.6279   -0.5650    1.0905 H         1 <0>         0.1628
     27 H5          2.0495   -2.5652   -0.1140 H         1 <0>         0.4169
     28 H6          0.9161   -4.5900    0.1717 H         1 <0>         0.4251
     29 H7         -4.3989   -4.7740    0.4572 H         1 <0>         0.1751
     30 H8         -5.1033   -7.3251    0.8805 H         1 <0>         0.1166
     31 H9         -2.4811   -8.7990    1.6492 H         1 <0>         0.0817
     32 H10        -4.0590   -8.7865    2.5498 H         1 <0>         0.0753
     33 H11        -3.5213  -10.6257    0.3891 H         1 <0>         0.0721
     34 H12        -5.1934  -10.0200    0.7614 H         1 <0>         0.0852
     35 H13        -4.8236   -8.5940   -1.1973 H         1 <0>         0.0747
     36 H14        -3.0198   -8.6634   -0.9909 H         1 <0>         0.0825
@<TRIPOS>BOND
     1    1    6 ar
     2    1    2 ar
     3    1   24 1
     4    2    3 ar
     5    2   25 1
     6    3   22 1
     7    3    4 ar
     8    4    5 ar
     9    4   20 1
    10    5    6 ar
    11    5    7 1
    12    6   26 1
    13    7    8 am
    14    7   27 1
    15    8    9 2
    16    8   10 am
    17   10   11 1
    18   10   28 1
    19   11   15 1
    20   11   12 2
    21   12   13 1
    22   13   14 2
    23   13   29 1
    24   14   15 1
    25   14   16 1
    26   16   19 1
    27   16   17 1
    28   16   30 1
    29   17   18 1
    30   17   31 1
    31   17   32 1
    32   18   19 1
    33   18   33 1
    34   18   34 1
    35   19   35 1
    36   19   36 1
    37   20   21 2
    38   21   22 1
    39   22   23 1
@<TRIPOS>MOLECULE
CHEMBL186371
   36    39     0     0     0
SMALL
USER_CHARGES

@<TRIPOS>ATOM
      1 C1         -0.1143    1.2228   -0.6273 C.ar      1 <0>        -0.0738
      2 C2         -0.0028   -0.0096   -0.0652 C.ar      1 <0>        -0.0810
      3 C3         -1.1139   -0.5834    0.5789 C.ar      1 <0>         0.0479
      4 C4         -2.3737    0.1723    0.6261 C.ar      1 <0>         0.0145
      5 C5         -2.4232    1.4472    0.0225 C.ar      1 <0>         0.2072
      6 C6         -1.3045    1.9464   -0.5808 C.ar      1 <0>        -0.1057
      7 N1         -3.6031    2.1937    0.0478 N.am      1 <0>        -0.6711
      8 C7         -3.5490    3.5361    0.1558 C.2       1 <0>         0.7008
      9 O1         -2.4739    4.1038    0.1485 O.2       1 <0>        -0.5051
     10 N2         -4.6868    4.2491    0.2720 N.am      1 <0>        -0.6264
     11 C8         -4.6310    5.6334    0.3835 C.2       1 <0>         0.2791
     12 N3         -3.5700    6.4111    0.3883 N.2       1 <0>        -0.5134
     13 C9         -3.6851    7.7215    0.5032 C.2       1 <0>         0.0618
     14 C10        -4.9396    8.2224    0.6150 C.2       1 <0>        -0.1952
     15 S1         -5.9050    6.7224    0.5375 S.3       1 <0>         0.1185
     16 C11        -5.3945    9.6518    0.7588 C.3       1 <0>        -0.0205
     17 C12        -6.5966    9.8238    1.7024 C.3       1 <0>        -0.1351
     18 C13        -7.1368   10.8559    0.6985 C.3       1 <0>        -0.1426
     19 C14        -6.3191   10.1212   -0.3769 C.3       1 <0>        -0.1334
     20 N4         -3.2128   -0.6109    1.2825 N.2       1 <0>        -0.2699
     21 N5         -2.6010   -1.6959    1.6085 N.pl3     1 <0>        -0.1965
     22 N6         -1.3754   -1.7142    1.2143 N.2       1 <0>        -0.2694
     23 H1         -3.0184   -2.4213    2.0989 H         1 <0>         0.4737
     24 H2          0.7442    1.6551   -1.1197 H         1 <0>         0.1421
     25 H3          0.9336   -0.5456   -0.1132 H         1 <0>         0.1403
     26 H4         -1.3457    2.9224   -1.0413 H         1 <0>         0.1550
     27 H5         -4.4615    1.7462   -0.0124 H         1 <0>         0.4123
     28 H6         -5.5445    3.7962    0.2779 H         1 <0>         0.4238
     29 H7         -2.8181    8.3655    0.5083 H         1 <0>         0.1749
     30 H8         -4.5737   10.3385    0.9656 H         1 <0>         0.1165
     31 H9         -7.2164    8.9312    1.7871 H         1 <0>         0.0816
     32 H10        -6.3344   10.2516    2.6700 H         1 <0>         0.0751
     33 H11        -8.2143   10.7940    0.5459 H         1 <0>         0.0719
     34 H12        -6.7931   11.8724    0.8898 H         1 <0>         0.0851
     35 H13        -5.8329   10.7892   -1.0878 H         1 <0>         0.0747
     36 H14        -6.8630    9.3099   -0.8606 H         1 <0>         0.0824
@<TRIPOS>BOND
     1    1    2 ar
     2    1   24 1
     3    1    6 ar
     4    2    3 ar
     5    2   25 1
     6    3   22 2
     7    3    4 ar
     8    4    5 ar
     9    4   20 2
    10    5    6 ar
    11    5    7 1
    12    6   26 1
    13    7    8 am
    14    7   27 1
    15    8    9 2
    16    8   10 am
    17   10   11 1
    18   10   28 1
    19   11   15 1
    20   11   12 2
    21   12   13 1
    22   13   14 2
    23   13   29 1
    24   14   15 1
    25   14   16 1
    26   16   19 1
    27   16   17 1
    28   16   30 1
    29   17   18 1
    30   17   31 1
    31   17   32 1
    32   18   19 1
    33   18   33 1
    34   18   34 1
    35   19   35 1
    36   19   36 1
    37   20   21 1
    38   21   23 1
    39   21   22 1
@<TRIPOS>MOLECULE
CHEMBL397531
   50    53     0     0     0
SMALL
USER_CHARGES

@<TRIPOS>ATOM
      1 C1         -0.1138   -0.0461   -1.4284 C.3       1 <0>        -0.1659
      2 C2         -0.1230   -1.5200   -1.0177 C.3       1 <0>         0.1307
      3 N1          0.6273   -1.6839    0.2299 N.am      1 <0>        -0.7481
      4 C3          0.7536   -2.9057    0.7846 C.2       1 <0>         0.7072
      5 O1          0.1712   -3.8566    0.3000 O.2       1 <0>        -0.5857
      6 N2          1.5256   -3.0734    1.8766 N.am      1 <0>        -0.6317
      7 C4          2.1435   -1.9179    2.5412 C.3       1 <0>         0.1183
      8 C5          3.6503   -2.1664    2.6623 C.3       1 <0>        -0.1449
      9 C6          3.8877   -3.5010    3.3726 C.3       1 <0>         0.1620
     10 C7          3.2757   -4.6357    2.5479 C.3       1 <0>        -0.1441
     11 C8          1.7601   -4.4146    2.4288 C.3       1 <0>         0.1337
     12 N3          5.3277   -3.7263    3.5197 N.pl3     1 <0>        -0.6867
     13 C9          5.8009   -4.5421    4.5336 C.ar      1 <0>         0.5798
     14 N4          4.9354   -5.1146    5.3578 N.ar      1 <0>        -0.5551
     15 C10         5.3457   -5.9026    6.3415 C.ar      1 <0>         0.2213
     16 C11         6.6984   -6.1288    6.5078 C.ar      1 <0>        -0.2158
     17 C12         7.5925   -5.5101    5.6210 C.ar      1 <0>         0.3261
     18 N5          7.1049   -4.7336    4.6505 N.ar      1 <0>        -0.5461
     19 C13         9.0443   -5.7180    5.7551 C.2       1 <0>        -0.0680
     20 C14         9.9388   -5.9654    4.7357 C.2       1 <0>         0.1141
     21 N6         11.1497   -6.0931    5.2659 N.2       1 <0>        -0.4927
     22 C15        11.0788   -5.9392    6.5842 C.2       1 <0>         0.2452
     23 N7          9.7751   -5.6973    6.9237 N.pl3     1 <0>        -0.3358
     24 C16         9.4236   -5.4960    8.2244 C.2       1 <0>         0.0599
     25 C17        10.3556   -5.5278    9.2020 C.2       1 <0>        -0.1411
     26 C18        11.7014   -5.7701    8.8865 C.2       1 <0>        -0.0891
     27 C19        12.0625   -5.9804    7.5906 C.2       1 <0>        -0.0849
     28 Cl1         7.2781   -7.1534    7.7836 Cl        1 <0>        -0.0391
     29 H1          0.9145    0.2832   -1.5769 H         1 <0>         0.0610
     30 H2         -0.6721    0.0759   -2.3566 H         1 <0>         0.0767
     31 H3         -0.5774    0.5525   -0.6442 H         1 <0>         0.0615
     32 H4         -1.1514   -1.8493   -0.8691 H         1 <0>         0.0675
     33 H5          0.3406   -2.1185   -1.8018 H         1 <0>         0.0657
     34 H6          1.0331   -0.9132    0.6566 H         1 <0>         0.3947
     35 H7          1.9678   -1.0192    1.9499 H         1 <0>         0.0826
     36 H8          1.7126   -1.7942    3.5347 H         1 <0>         0.0766
     37 H9          4.0947   -2.1996    1.6675 H         1 <0>         0.0765
     38 H10         4.1066   -1.3615    3.2384 H         1 <0>         0.0854
     39 H11         3.4218   -3.4760    4.3577 H         1 <0>         0.0976
     40 H12         3.7236   -4.6457    1.5542 H         1 <0>         0.0692
     41 H13         3.4655   -5.5883    3.0425 H         1 <0>         0.0823
     42 H14         1.2986   -4.4904    3.4133 H         1 <0>         0.0713
     43 H15         1.3314   -5.1639    1.7633 H         1 <0>         0.0982
     44 H16         5.9498   -3.3040    2.9068 H         1 <0>         0.4163
     45 H17         4.6299   -6.3628    7.0065 H         1 <0>         0.1805
     46 H18         9.6964   -6.0426    3.6861 H         1 <0>         0.1888
     47 H19         8.3902   -5.3088    8.4764 H         1 <0>         0.1649
     48 H20        10.0641   -5.3660   10.2292 H         1 <0>         0.1547
     49 H21        12.4460   -5.7951    9.6684 H         1 <0>         0.1476
     50 H22        13.0955   -6.1663    7.3359 H         1 <0>         0.1566
@<TRIPOS>BOND
     1    1    2 1
     2    1   29 1
     3    1   30 1
     4    1   31 1
     5    2    3 1
     6    2   32 1
     7    2   33 1
     8    3    4 am
     9    3   34 1
    10    4    5 2
    11    4    6 am
    12    6   11 1
    13    6    7 1
    14    7    8 1
    15    7   35 1
    16    7   36 1
    17    8    9 1
    18    8   37 1
    19    8   38 1
    20    9   10 1
    21    9   12 1
    22    9   39 1
    23   10   11 1
    24   10   40 1
    25   10   41 1
    26   11   42 1
    27   11   43 1
    28   12   13 1
    29   12   44 1
    30   13   18 ar
    31   13   14 ar
    32   14   15 ar
    33   15   16 ar
    34   15   45 1
    35   16   17 ar
    36   16   28 1
    37   17   18 ar
    38   17   19 1
    39   19   23 1
    40   19   20 2
    41   20   21 1
    42   20   46 1
    43   21   22 2
    44   22   27 1
    45   22   23 1
    46   23   24 1
    47   24   25 2
    48   24   47 1
    49   25   26 1
    50   25   48 1
    51   26   27 2
    52   26   49 1
    53   27   50 1
@<TRIPOS>MOLECULE
CHEMBL397531
   51    54     0     0     0
SMALL
USER_CHARGES

@<TRIPOS>ATOM
      1 C1         -1.1774   -0.0729    0.8177 C.3       1 <0>        -0.1663
      2 C2         -0.7802   -1.5379    0.6255 C.3       1 <0>         0.1298
      3 N1         -0.0709   -1.6886   -0.6475 N.am      1 <0>        -0.7466
      4 C3          0.3770   -2.9008   -1.0300 C.2       1 <0>         0.7069
      5 O1          0.2723   -3.8521   -0.2800 O.2       1 <0>        -0.5824
      6 N2          0.9409   -3.0587   -2.2439 N.am      1 <0>        -0.6336
      7 C4          1.1784   -1.8999   -3.1153 C.3       1 <0>         0.1175
      8 C5          0.5366   -2.1694   -4.4800 C.3       1 <0>        -0.1448
      9 C6          1.0665   -3.4931   -5.0360 C.3       1 <0>         0.1567
     10 C7          0.6867   -4.6343   -4.0897 C.3       1 <0>        -0.1433
     11 C8          1.3354   -4.3921   -2.7184 C.3       1 <0>         0.1332
     12 N3          0.4798   -3.7377   -6.3559 N.pl3     1 <0>        -0.6752
     13 C9          1.1417   -4.5404   -7.2698 C.ar      1 <0>         0.5879
     14 N4          2.3022   -5.0827   -6.9302 N.ar      1 <0>        -0.5340
     15 C10         2.9687   -5.8572   -7.7746 C.ar      1 <0>         0.2376
     16 C11         2.4423   -6.1010   -9.0285 C.ar      1 <0>        -0.2087
     17 C12         1.2122   -5.5142   -9.3616 C.ar      1 <0>         0.2882
     18 N5          0.5961   -4.7498   -8.4568 N.ar      1 <0>        -0.5397
     19 C13         0.6080   -5.7420  -10.6853 C.2       1 <0>         0.0231
     20 C14        -0.7154   -6.0237  -10.9495 C.2       1 <0>         0.1386
     21 N6         -0.8582   -6.1595  -12.2627 N.pl3     1 <0>        -0.5016
     22 C15         0.3147   -5.9782  -12.8610 C.cat     1 <0>         0.3071
     23 N7          1.2541   -5.7093  -11.9024 N.pl3     1 <0>        -0.3085
     24 C16         2.5509   -5.4766  -12.2490 C.2       1 <0>         0.0860
     25 C17         2.9323   -5.5034  -13.5449 C.2       1 <0>        -0.1093
     26 C18         1.9928   -5.7729  -14.5518 C.2       1 <0>        -0.0127
     27 C19         0.6955   -6.0146  -14.2159 C.2       1 <0>        -0.1208
     28 Cl1         3.2830   -7.1089  -10.1648 Cl        1 <0>        -0.0331
     29 H1         -0.2819    0.5484    0.8250 H         1 <0>         0.0622
     30 H2         -1.8282    0.2374    0.0002 H         1 <0>         0.0607
     31 H3         -1.7052    0.0392    1.7648 H         1 <0>         0.0784
     32 H4         -0.1295   -1.8482    1.4430 H         1 <0>         0.0691
     33 H5         -1.6758   -2.1592    0.6181 H         1 <0>         0.0665
     34 H6          0.0764   -0.9158   -1.2150 H         1 <0>         0.3945
     35 H7          0.7317   -1.0106   -2.6707 H         1 <0>         0.0856
     36 H8          2.2509   -1.7496   -3.2393 H         1 <0>         0.0778
     37 H9         -0.5459   -2.2294   -4.3673 H         1 <0>         0.0780
     38 H10         0.7871   -1.3603   -5.1660 H         1 <0>         0.0863
     39 H11         2.1516   -3.4411   -5.1251 H         1 <0>         0.1018
     40 H12        -0.3973   -4.6711   -3.9808 H         1 <0>         0.0711
     41 H13         1.0440   -5.5797   -4.4980 H         1 <0>         0.0813
     42 H14         2.4203   -4.4409   -2.8106 H         1 <0>         0.0724
     43 H15         0.9922   -5.1477   -2.0117 H         1 <0>         0.1008
     44 H16        -0.3723   -3.3375   -6.5897 H         1 <0>         0.4194
     45 H17         3.9137   -6.2928   -7.4855 H         1 <0>         0.1917
     46 H18        -1.5011   -6.1180  -10.2145 H         1 <0>         0.2370
     47 H19         3.2808   -5.2684  -11.4807 H         1 <0>         0.1973
     48 H20         3.9633   -5.3165  -13.8066 H         1 <0>         0.1862
     49 H21         2.2982   -5.7938  -15.5875 H         1 <0>         0.1788
     50 H22        -0.0365   -6.2217  -14.9825 H         1 <0>         0.1839
     51 H23        -1.6917   -6.3608  -12.7163 H         1 <0>         0.4677
@<TRIPOS>BOND
     1    1    2 1
     2    1   29 1
     3    1   30 1
     4    1   31 1
     5    2    3 1
     6    2   32 1
     7    2   33 1
     8    3    4 am
     9    3   34 1
    10    4    5 2
    11    4    6 am
    12    6   11 1
    13    6    7 1
    14    7    8 1
    15    7   35 1
    16    7   36 1
    17    8    9 1
    18    8   37 1
    19    8   38 1
    20    9   10 1
    21    9   12 1
    22    9   39 1
    23   10   11 1
    24   10   40 1
    25   10   41 1
    26   11   42 1
    27   11   43 1
    28   12   13 1
    29   12   44 1
    30   13   18 ar
    31   13   14 ar
    32   14   15 ar
    33   15   16 ar
    34   15   45 1
    35   16   17 ar
    36   16   28 1
    37   17   18 ar
    38   17   19 1
    39   19   23 1
    40   19   20 2
    41   20   21 1
    42   20   46 1
    43   21   22 2
    44   21   51 1
    45   22   27 1
    46   22   23 1
    47   23   24 1
    48   24   25 2
    49   24   47 1
    50   25   26 1
    51   25   48 1
    52   26   27 2
    53   26   49 1
    54   27   50 1
@<TRIPOS>MOLECULE
CHEMBL114636
   40    43     0     0     0
SMALL
USER_CHARGES

@<TRIPOS>ATOM
      1 C1         -0.0163    1.3535    0.0095 C.2       1 <0>        -0.1546
      2 C2          1.1776    2.0410    0.0018 C.2       1 <0>        -0.1504
      3 C3          2.3470    1.3291   -0.0132 C.2       1 <0>        -0.1066
      4 S1          1.7525   -0.3544   -0.0166 S.3       1 <0>         0.0545
      5 C4          0.0021   -0.0041    0.0020 C.2       1 <0>        -0.1753
      6 C5          3.7395    1.8252   -0.0243 C.ar      1 <0>        -0.0036
      7 C6          3.9948    3.1974   -0.0140 C.ar      1 <0>        -0.0963
      8 C7          5.2967    3.6538   -0.0239 C.ar      1 <0>        -0.0969
      9 C8          6.3480    2.7546   -0.0444 C.ar      1 <0>        -0.0662
     10 C9          6.1019    1.3932   -0.0547 C.ar      1 <0>        -0.0960
     11 C10         4.8047    0.9235   -0.0392 C.ar      1 <0>        -0.1040
     12 C11         7.7676    3.2604   -0.0562 C.3       1 <0>        -0.0972
     13 C12         8.2572    3.4157    1.3606 C.2       1 <0>         0.5225
     14 O1          7.5254    3.1426    2.2885 O.2       1 <0>        -0.4985
     15 N1          9.5082    3.8581    1.5965 N.am      1 <0>        -0.6382
     16 C13         9.9636    4.0026    2.9141 C.2       1 <0>         0.3030
     17 C14         9.2287    3.7193    4.0765 C.2       1 <0>        -0.2592
     18 C15        10.0173    3.9880    5.1418 C.2       1 <0>         0.1308
     19 N2         11.2066    4.4250    4.6767 N.pl3     1 <0>        -0.4674
     20 H1         11.9667    4.6914    5.2172 H         1 <0>         0.4391
     21 N3         11.1532    4.4210    3.2770 N.2       1 <0>        -0.3187
     22 C16         9.6357    3.8284    6.5909 C.3       1 <0>        -0.0987
     23 C17        10.2253    4.8254    7.5906 C.3       1 <0>        -0.1702
     24 C18        10.7282    3.3806    7.5640 C.3       1 <0>        -0.1699
     25 H2         -0.9549    1.8876    0.0258 H         1 <0>         0.1361
     26 H3          1.1908    3.1209    0.0071 H         1 <0>         0.1350
     27 H4         -0.8285   -0.6944    0.0062 H         1 <0>         0.1876
     28 H5          3.1750    3.9003    0.0014 H         1 <0>         0.1274
     29 H6          5.4956    4.7153   -0.0159 H         1 <0>         0.1270
     30 H7          6.9270    0.6965   -0.0708 H         1 <0>         0.1267
     31 H8          4.6139   -0.1395   -0.0431 H         1 <0>         0.1248
     32 H9          8.4025    2.5488   -0.5841 H         1 <0>         0.1118
     33 H10         7.8053    4.2254   -0.5615 H         1 <0>         0.1118
     34 H11        10.0935    4.0766    0.8544 H         1 <0>         0.4168
     35 H12         8.2138    3.3519    4.1133 H         1 <0>         0.1729
     36 H13         8.6220    3.4718    6.7736 H         1 <0>         0.1343
     37 H14        10.8892    5.5966    7.2002 H         1 <0>         0.0947
     38 H15         9.5994    5.1250    8.4312 H         1 <0>         0.1080
     39 H16        10.4331    2.7297    8.3870 H         1 <0>         0.1080
     40 H17        11.7229    3.2014    7.1560 H         1 <0>         0.0949
@<TRIPOS>BOND
     1    1    5 2
     2    1    2 1
     3    1   25 1
     4    2    3 2
     5    2   26 1
     6    3    4 1
     7    3    6 1
     8    4    5 1
     9    5   27 1
    10    6   11 ar
    11    6    7 ar
    12    7    8 ar
    13    7   28 1
    14    8    9 ar
    15    8   29 1
    16    9   10 ar
    17    9   12 1
    18   10   11 ar
    19   10   30 1
    20   11   31 1
    21   12   13 1
    22   12   32 1
    23   12   33 1
    24   13   14 2
    25   13   15 am
    26   15   16 1
    27   15   34 1
    28   16   21 2
    29   16   17 1
    30   17   18 2
    31   17   35 1
    32   18   19 1
    33   18   22 1
    34   19   20 1
    35   19   21 1
    36   22   24 1
    37   22   23 1
    38   22   36 1
    39   23   24 1
    40   23   37 1
    41   23   38 1
    42   24   39 1
    43   24   40 1
@<TRIPOS>MOLECULE
CHEMBL114636
   40    43     0     0     0
SMALL
USER_CHARGES

@<TRIPOS>ATOM
      1 C1         -0.0163    1.3535    0.0095 C.2       1 <0>        -0.1551
      2 C2          1.1776    2.0410    0.0018 C.2       1 <0>        -0.1489
      3 C3          2.3470    1.3291   -0.0132 C.2       1 <0>        -0.1088
      4 S1          1.7525   -0.3544   -0.0166 S.3       1 <0>         0.0554
      5 C4          0.0021   -0.0041    0.0020 C.2       1 <0>        -0.1740
      6 C5          3.7395    1.8252   -0.0243 C.ar      1 <0>        -0.0011
      7 C6          3.9948    3.1974   -0.0140 C.ar      1 <0>        -0.0964
      8 C7          5.2967    3.6538   -0.0239 C.ar      1 <0>        -0.0963
      9 C8          6.3480    2.7546   -0.0444 C.ar      1 <0>        -0.0697
     10 C9          6.1019    1.3932   -0.0547 C.ar      1 <0>        -0.0953
     11 C10         4.8047    0.9235   -0.0392 C.ar      1 <0>        -0.1040
     12 C11         7.7676    3.2604   -0.0562 C.3       1 <0>        -0.0950
     13 C12         8.2572    3.4157    1.3606 C.2       1 <0>         0.5200
     14 O1          7.5255    3.1426    2.2885 O.2       1 <0>        -0.4880
     15 N1          9.5082    3.8581    1.5965 N.am      1 <0>        -0.6536
     16 C13         9.9614    4.0019    2.9077 C.2       1 <0>         0.3061
     17 C14         9.2517    3.7339    4.0378 C.2       1 <0>        -0.2696
     18 C15        10.0727    4.0107    5.1344 C.2       1 <0>         0.1220
     19 N2         11.2294    4.4282    4.6873 N.2       1 <0>        -0.2792
     20 H1         11.9104    4.6879    2.6946 H         1 <0>         0.4366
     21 N3         11.1880    4.4274    3.2872 N.pl3     1 <0>        -0.4911
     22 C16         9.6910    3.8554    6.5839 C.3       1 <0>        -0.0854
     23 C17         8.2021    3.7281    6.9126 C.3       1 <0>        -0.1632
     24 C18         8.9521    5.0187    7.2484 C.3       1 <0>        -0.1632
     25 H2         -0.9549    1.8876    0.0258 H         1 <0>         0.1365
     26 H3          1.1908    3.1209    0.0071 H         1 <0>         0.1350
     27 H4         -0.8285   -0.6944    0.0062 H         1 <0>         0.1879
     28 H5          3.1750    3.9003    0.0014 H         1 <0>         0.1279
     29 H6          5.4956    4.7153   -0.0159 H         1 <0>         0.1267
     30 H7          6.9270    0.6965   -0.0708 H         1 <0>         0.1265
     31 H8          4.6139   -0.1395   -0.0431 H         1 <0>         0.1254
     32 H9          8.4025    2.5488   -0.5841 H         1 <0>         0.1117
     33 H10         7.8053    4.2254   -0.5615 H         1 <0>         0.1117
     34 H11        10.0935    4.0766    0.8544 H         1 <0>         0.4130
     35 H12         8.2350    3.3721    4.0796 H         1 <0>         0.1739
     36 H13        10.3922    3.2889    7.1966 H         1 <0>         0.1216
     37 H14         7.4988    3.7567    6.0804 H         1 <0>         0.1015
     38 H15         7.9236    3.0776    7.7417 H         1 <0>         0.1022
     39 H16         9.1669    5.2173    8.2984 H         1 <0>         0.1013
     40 H17         8.7421    5.8964    6.6371 H         1 <0>         0.0949
@<TRIPOS>BOND
     1    1    5 2
     2    1    2 1
     3    1   25 1
     4    2    3 2
     5    2   26 1
     6    3    4 1
     7    3    6 1
     8    4    5 1
     9    5   27 1
    10    6   11 ar
    11    6    7 ar
    12    7    8 ar
    13    7   28 1
    14    8    9 ar
    15    8   29 1
    16    9   10 ar
    17    9   12 1
    18   10   11 ar
    19   10   30 1
    20   11   31 1
    21   12   13 1
    22   12   32 1
    23   12   33 1
    24   13   14 2
    25   13   15 am
    26   15   34 1
    27   15   16 1
    28   16   17 2
    29   16   21 1
    30   17   18 1
    31   17   35 1
    32   18   19 2
    33   18   22 1
    34   19   21 1
    35   20   21 1
    36   22   24 1
    37   22   23 1
    38   22   36 1
    39   23   24 1
    40   23   37 1
    41   23   38 1
    42   24   39 1
    43   24   40 1
@<TRIPOS>MOLECULE
CHEMBL365713
   42    45     0     0     0
SMALL
USER_CHARGES

@<TRIPOS>ATOM
      1 C1          0.1414    1.6670    0.0835 C.3       1 <0>        -0.1416
      2 C2          0.0304    0.1413    0.0520 C.3       1 <0>        -0.0496
      3 C3          0.7448   -0.4390    1.2453 C.2       1 <0>         0.1680
      4 C4          2.1020   -0.8087    1.2930 C.2       1 <0>        -0.3325
      5 C5          2.3550   -1.3009    2.5836 C.2       1 <0>         0.3601
      6 N1          3.5901   -1.7252    2.8916 N.2       1 <0>        -0.5091
      7 C6          4.5626   -1.6940    2.0280 C.2       1 <0>         0.4369
      8 N2          4.4115   -1.2358    0.7596 N.am      1 <0>        -0.6461
      9 C7          3.2084   -0.7819    0.3367 C.2       1 <0>         0.5800
     10 O1          3.0529   -0.3668   -0.7982 O.2       1 <0>        -0.5077
     11 C8          5.9199   -2.1893    2.4561 C.3       1 <0>        -0.0330
     12 C9          5.8910   -2.5279    3.9243 C.ar      1 <0>        -0.1190
     13 C10         6.1971   -1.5642    4.8733 C.ar      1 <0>        -0.0541
     14 C11         6.1576   -1.9208    6.2123 C.ar      1 <0>        -0.1683
     15 C12         5.8168   -3.2159    6.5547 C.ar      1 <0>         0.1032
     16 N3          5.5320   -4.1065    5.6250 N.ar      1 <0>        -0.4811
     17 C13         5.5535   -3.8010    4.3422 C.ar      1 <0>         0.1228
     18 N4          1.1807   -1.2203    3.2666 N.pl3     1 <0>        -0.3142
     19 N5          0.2119   -0.6792    2.4121 N.2       1 <0>        -0.2493
     20 C14         0.9772   -1.6070    4.5984 C.ar      1 <0>         0.1671
     21 C15         1.7676   -1.0710    5.6075 C.ar      1 <0>        -0.0014
     22 C16         1.5645   -1.4544    6.9199 C.ar      1 <0>        -0.0875
     23 C17         0.5755   -2.3715    7.2291 C.ar      1 <0>        -0.0045
     24 C18        -0.2133   -2.9071    6.2263 C.ar      1 <0>        -0.0896
     25 C19        -0.0191   -2.5229    4.9128 C.ar      1 <0>        -0.0022
     26 Cl1        -1.0144   -3.1896    3.6563 Cl        1 <0>        -0.0152
     27 Cl2         0.3242   -2.8514    8.8784 Cl        1 <0>        -0.0294
     28 Cl3         3.0094    0.0787    5.2204 Cl        1 <0>        -0.0177
     29 H1          1.1921    1.9555    0.0536 H         1 <0>         0.0575
     30 H2         -0.3753    2.0868   -0.7796 H         1 <0>         0.0686
     31 H3         -0.3135    2.0456    0.9989 H         1 <0>         0.0568
     32 H4         -1.0203   -0.1472    0.0819 H         1 <0>         0.0860
     33 H5          0.4853   -0.2372   -0.8633 H         1 <0>         0.0968
     34 H6          6.1793   -3.0794    1.8830 H         1 <0>         0.1212
     35 H7          6.6633   -1.4124    2.2770 H         1 <0>         0.1171
     36 H8          6.4604   -0.5597    4.5762 H         1 <0>         0.1277
     37 H9          6.3905   -1.1959    6.9784 H         1 <0>         0.1332
     38 H10         5.7837   -3.5017    7.5956 H         1 <0>         0.1534
     39 H11         5.3091   -4.5560    3.6096 H         1 <0>         0.1495
     40 H12         2.1786   -1.0380    7.7047 H         1 <0>         0.1605
     41 H13        -0.9845   -3.6227    6.4707 H         1 <0>         0.1620
     42 H14         5.1689   -1.2334    0.1535 H         1 <0>         0.4247
@<TRIPOS>BOND
     1    1    2 1
     2    1   29 1
     3    1   30 1
     4    1   31 1
     5    2    3 1
     6    2   32 1
     7    2   33 1
     8    3   19 2
     9    3    4 1
    10    4    9 1
    11    4    5 2
    12    5    6 1
    13    5   18 1
    14    6    7 2
    15    7    8 1
    16    7   11 1
    17    8    9 am
    18    8   42 1
    19    9   10 2
    20   11   12 1
    21   11   34 1
    22   11   35 1
    23   12   17 ar
    24   12   13 ar
    25   13   14 ar
    26   13   36 1
    27   14   15 ar
    28   14   37 1
    29   15   16 ar
    30   15   38 1
    31   16   17 ar
    32   17   39 1
    33   18   19 1
    34   18   20 1
    35   20   25 ar
    36   20   21 ar
    37   21   22 ar
    38   21   28 1
    39   22   23 ar
    40   22   40 1
    41   23   24 ar
    42   23   27 1
    43   24   25 ar
    44   24   41 1
    45   25   26 1
@<TRIPOS>MOLECULE
CHEMBL129396
   40    42     0     0     0
SMALL
USER_CHARGES

@<TRIPOS>ATOM
      1 C1         -0.0187    1.5258    0.0104 C.3       1 <0>        -0.1523
      2 C2          0.0021   -0.0041    0.0020 C.3       1 <0>        -0.0418
      3 C3          0.7309   -0.5033    1.2229 C.2       1 <0>        -0.0238
      4 C4          0.1855   -0.7883    2.4169 C.2       1 <0>        -0.0398
      5 N1          1.1743   -1.2018    3.2291 N.2       1 <0>        -0.4507
      6 C5          2.2962   -1.1763    2.5678 C.2       1 <0>         0.1861
      7 O1          2.0515   -0.7532    1.3204 O.3       1 <0>        -0.1909
      8 C6          3.6461   -1.5644    3.1139 C.3       1 <0>        -0.0282
      9 S1          3.9278   -3.3335    2.8288 S.3       1 <0>         0.0409
     10 C7          5.5244   -3.6268    3.5140 C.2       1 <0>        -0.2256
     11 C8          6.2460   -4.7808    3.5759 C.2       1 <0>         0.0863
     12 N2          7.4387   -4.7745    4.1416 N.2       1 <0>        -0.4885
     13 C9          7.9506   -3.6697    4.6514 C.2       1 <0>         0.3382
     14 S2          6.6500   -2.4906    4.3140 S.3       1 <0>         0.0241
     15 N3          9.1773   -3.4742    5.2798 N.am      1 <0>        -0.6194
     16 C10        10.0286   -4.5078    5.4325 C.2       1 <0>         0.5073
     17 O2          9.7260   -5.6085    5.0223 O.2       1 <0>        -0.4554
     18 C11        11.3566   -4.2962    6.1128 C.3       1 <0>        -0.0879
     19 C12        12.1127   -5.5991    6.1551 C.ar      1 <0>        -0.1305
     20 C13        11.9605   -6.4646    7.2278 C.ar      1 <0>        -0.0576
     21 C14        12.6761   -7.6520    7.2241 C.ar      1 <0>        -0.1706
     22 C15        13.5114   -7.9317    6.1590 C.ar      1 <0>         0.1036
     23 N4         13.6317   -7.0846    5.1557 N.ar      1 <0>        -0.4834
     24 C16        12.9620   -5.9489    5.1228 C.ar      1 <0>         0.1178
     25 H1          1.0039    1.9031    0.0027 H         1 <0>         0.0588
     26 H2         -0.5459    1.8868   -0.8726 H         1 <0>         0.0718
     27 H3         -0.5289    1.8773    0.9072 H         1 <0>         0.0620
     28 H4         -1.0205   -0.3814    0.0098 H         1 <0>         0.1023
     29 H5          0.5123   -0.3556   -0.8948 H         1 <0>         0.0872
     30 H6         -0.8589   -0.7012    2.6776 H         1 <0>         0.1896
     31 H7          4.4215   -0.9872    2.6103 H         1 <0>         0.1203
     32 H8          3.6777   -1.3593    4.1840 H         1 <0>         0.1326
     33 H9          5.8446   -5.6953    3.1648 H         1 <0>         0.1758
     34 H10         9.4194   -2.5940    5.6079 H         1 <0>         0.4288
     35 H11        11.9355   -3.5579    5.5579 H         1 <0>         0.1162
     36 H12        11.1912   -3.9389    7.1292 H         1 <0>         0.1146
     37 H13        11.3006   -6.2194    8.0468 H         1 <0>         0.1336
     38 H14        12.5823   -8.3495    8.0433 H         1 <0>         0.1376
     39 H15        14.0723   -8.8545    6.1485 H         1 <0>         0.1576
     40 H16        13.0823   -5.2825    4.2814 H         1 <0>         0.1533
@<TRIPOS>BOND
     1    1    2 1
     2    1   25 1
     3    1   26 1
     4    1   27 1
     5    2    3 1
     6    2   28 1
     7    2   29 1
     8    3    7 1
     9    3    4 2
    10    4    5 1
    11    4   30 1
    12    5    6 2
    13    6    7 1
    14    6    8 1
    15    8    9 1
    16    8   31 1
    17    8   32 1
    18    9   10 1
    19   10   14 1
    20   10   11 2
    21   11   12 1
    22   11   33 1
    23   12   13 2
    24   13   14 1
    25   13   15 1
    26   15   16 am
    27   15   34 1
    28   16   17 2
    29   16   18 1
    30   18   19 1
    31   18   35 1
    32   18   36 1
    33   19   24 ar
    34   19   20 ar
    35   20   21 ar
    36   20   37 1
    37   21   22 ar
    38   21   38 1
    39   22   23 ar
    40   22   39 1
    41   23   24 ar
    42   24   40 1
@<TRIPOS>MOLECULE
CHEMBL27275
   52    56     0     0     0
SMALL
USER_CHARGES

@<TRIPOS>ATOM
      1 C1          0.0172    1.4201    0.0123 C.3       1 <0>         0.0238
      2 O1          0.0394   -0.0087    0.0029 O.3       1 <0>        -0.3118
      3 C2          0.6355   -0.6091   -1.0593 C.ar      1 <0>         0.1518
      4 C3          1.1930    0.1651   -2.0695 C.ar      1 <0>        -0.2104
      5 C4          1.7990   -0.4397   -3.1486 C.ar      1 <0>        -0.0515
      6 C5          1.8526   -1.8341   -3.2264 C.ar      1 <0>        -0.1014
      7 C6          1.2906   -2.6089   -2.2079 C.ar      1 <0>        -0.0252
      8 C7          0.6912   -1.9957   -1.1299 C.ar      1 <0>        -0.1498
      9 C8          2.5002   -2.4864   -4.3804 C.2       1 <0>         0.2418
     10 C9          2.0025   -3.5608   -5.1050 C.2       1 <0>        -0.3317
     11 C10         2.9889   -3.8545   -6.1479 C.2       1 <0>         0.1275
     12 N1          3.9698   -2.9973   -6.0093 N.2       1 <0>        -0.2351
     13 N2          3.6955   -2.1425   -4.9372 N.pl3     1 <0>        -0.4658
     14 H1          4.2674   -1.4194   -4.6358 H         1 <0>         0.4482
     15 C11         2.4769   -5.0027   -6.9366 C.ar      1 <0>         0.0415
     16 C12         3.0051   -5.6810   -8.0278 C.ar      1 <0>        -0.1101
     17 C13         2.3145   -6.7406   -8.5920 C.ar      1 <0>        -0.0622
     18 C14         1.0960   -7.1357   -8.0787 C.ar      1 <0>        -0.1326
     19 C15         0.5478   -6.4718   -6.9864 C.ar      1 <0>         0.2291
     20 C16         1.2363   -5.3982   -6.4070 C.ar      1 <0>        -0.1959
     21 C17         0.9045   -4.5238   -5.2638 C.2       1 <0>         0.4924
     22 O2         -0.0973   -4.5899   -4.5765 O.2       1 <0>        -0.4454
     23 N3         -0.6820   -6.8723   -6.4710 N.am      1 <0>        -0.6695
     24 C18        -1.1085   -8.1380   -6.6519 C.2       1 <0>         0.5145
     25 O3         -0.3800   -8.9544   -7.1750 O.2       1 <0>        -0.5005
     26 C19        -2.4905   -8.5387   -6.2042 C.3       1 <0>        -0.0913
     27 C20        -2.7180   -9.9948   -6.5188 C.ar      1 <0>        -0.1332
     28 C21        -3.2525  -10.3612   -7.7405 C.ar      1 <0>        -0.0533
     29 C22        -3.4623  -11.6947   -8.0321 C.ar      1 <0>        -0.1977
     30 C23        -3.1358  -12.6683   -7.0967 C.ar      1 <0>         0.2192
     31 C24        -2.5992  -12.2968   -5.8705 C.ar      1 <0>        -0.1975
     32 C25        -2.3867  -10.9618   -5.5875 C.ar      1 <0>        -0.0526
     33 N4         -3.3471  -14.0179   -7.3882 N.pl3     1 <0>        -0.8791
     34 H2          1.0390    1.7994   -0.0032 H         1 <0>         0.0585
     35 H3         -0.5177    1.7809   -0.8662 H         1 <0>         0.0590
     36 H4         -0.4865    1.7697    0.9134 H         1 <0>         0.1044
     37 H5          1.1508    1.2426   -2.0088 H         1 <0>         0.1367
     38 H6          2.2318    0.1628   -3.9336 H         1 <0>         0.1290
     39 H7          1.3297   -3.6867   -2.2641 H         1 <0>         0.1381
     40 H8          0.2605   -2.5935   -0.3403 H         1 <0>         0.1412
     41 H9          3.9580   -5.3807   -8.4380 H         1 <0>         0.1375
     42 H10         2.7326   -7.2616   -9.4407 H         1 <0>         0.1418
     43 H11         0.5660   -7.9631   -8.5269 H         1 <0>         0.1597
     44 H12        -1.2318   -6.2405   -5.9817 H         1 <0>         0.4215
     45 H13        -2.5846   -8.3801   -5.1299 H         1 <0>         0.1063
     46 H14        -3.2314   -7.9339   -6.7270 H         1 <0>         0.1068
     47 H15        -3.5064   -9.6037   -8.4672 H         1 <0>         0.1192
     48 H16        -3.8800  -11.9802   -8.9863 H         1 <0>         0.1196
     49 H17        -2.3446  -13.0512   -5.1408 H         1 <0>         0.1195
     50 H18        -1.9654  -10.6725   -4.6361 H         1 <0>         0.1191
     51 H19        -3.7223  -14.2761   -8.2446 H         1 <0>         0.3981
     52 H20        -3.1188  -14.6969   -6.7342 H         1 <0>         0.3982
@<TRIPOS>BOND
     1    1    2 1
     2    1   34 1
     3    1   35 1
     4    1   36 1
     5    2    3 1
     6    3    8 ar
     7    3    4 ar
     8    4    5 ar
     9    4   37 1
    10    5    6 ar
    11    5   38 1
    12    6    7 ar
    13    6    9 1
    14    7    8 ar
    15    7   39 1
    16    8   40 1
    17    9   13 1
    18    9   10 2
    19   10   21 1
    20   10   11 1
    21   11   12 2
    22   11   15 1
    23   12   13 1
    24   13   14 1
    25   15   20 ar
    26   15   16 ar
    27   16   17 ar
    28   16   41 1
    29   17   18 ar
    30   17   42 1
    31   18   19 ar
    32   18   43 1
    33   19   20 ar
    34   19   23 1
    35   20   21 1
    36   21   22 2
    37   23   24 am
    38   23   44 1
    39   24   25 2
    40   24   26 1
    41   26   27 1
    42   26   45 1
    43   26   46 1
    44   27   32 ar
    45   27   28 ar
    46   28   29 ar
    47   28   47 1
    48   29   30 ar
    49   29   48 1
    50   30   31 ar
    51   30   33 1
    52   31   32 ar
    53   31   49 1
    54   32   50 1
    55   33   51 1
    56   33   52 1
@<TRIPOS>MOLECULE
CHEMBL27275
   52    56     0     0     0
SMALL
USER_CHARGES

@<TRIPOS>ATOM
      1 C1         -0.0559    1.4427    0.0169 C.3       1 <0>         0.0249
      2 O1         -0.0282    0.0141    0.0043 O.3       1 <0>        -0.3146
      3 C2         -1.2263   -0.6262    0.0159 C.ar      1 <0>         0.1441
      4 C3         -2.4044    0.1087    0.0331 C.ar      1 <0>        -0.2135
      5 C4         -3.6220   -0.5381    0.0444 C.ar      1 <0>        -0.0424
      6 C5         -3.6695   -1.9319    0.0386 C.ar      1 <0>        -0.0732
      7 C6         -2.4845   -2.6670    0.0213 C.ar      1 <0>        -0.0347
      8 C7         -1.2703   -2.0141    0.0047 C.ar      1 <0>        -0.1524
      9 C8         -4.9766   -2.6304    0.0512 C.2       1 <0>         0.2013
     10 C9         -5.2776   -3.8466   -0.6071 C.2       1 <0>        -0.3135
     11 C10        -6.6066   -4.1443   -0.3359 C.2       1 <0>         0.1579
     12 N1         -7.0872   -3.1559    0.4489 N.pl3     1 <0>        -0.4247
     13 N2         -6.0621   -2.2323    0.6815 N.2       1 <0>        -0.2712
     14 H1         -7.9910   -3.0977    0.7961 H         1 <0>         0.4470
     15 C11        -6.9610   -5.4160   -1.0110 C.ar      1 <0>         0.0113
     16 C12        -8.1410   -6.1434   -1.0610 C.ar      1 <0>        -0.1120
     17 C13        -8.2008   -7.3282   -1.7837 C.ar      1 <0>        -0.0646
     18 C14        -7.0940   -7.7944   -2.4573 C.ar      1 <0>        -0.1267
     19 C15        -5.8960   -7.0773   -2.4200 C.ar      1 <0>         0.2341
     20 C16        -5.8263   -5.8870   -1.6972 C.ar      1 <0>        -0.1968
     21 C17        -4.7318   -4.9172   -1.4658 C.2       1 <0>         0.4859
     22 O2         -3.5994   -4.9880   -1.9009 O.2       1 <0>        -0.4329
     23 N3         -4.7779   -7.5484   -3.1005 N.am      1 <0>        -0.6695
     24 C18        -4.9297   -8.3638   -4.1629 C.2       1 <0>         0.5153
     25 O3         -6.0395   -8.6066   -4.5872 O.2       1 <0>        -0.4999
     26 C19        -3.7203   -8.9738   -4.8234 C.3       1 <0>        -0.0912
     27 C20        -4.1602   -9.8377   -5.9772 C.ar      1 <0>        -0.1342
     28 C21        -4.4415  -11.1755   -5.7692 C.ar      1 <0>        -0.0531
     29 C22        -4.8449  -11.9700   -6.8244 C.ar      1 <0>        -0.1979
     30 C23        -4.9679  -11.4238   -8.0957 C.ar      1 <0>         0.2197
     31 C24        -4.6844  -10.0796   -8.3010 C.ar      1 <0>        -0.1974
     32 C25        -4.2870   -9.2894   -7.2404 C.ar      1 <0>        -0.0524
     33 N4         -5.3751  -12.2246   -9.1651 N.pl3     1 <0>        -0.8789
     34 H2          0.9644    1.8261    0.0057 H         1 <0>         0.1021
     35 H3         -0.5893    1.8035   -0.8626 H         1 <0>         0.0575
     36 H4         -0.5640    1.7884    0.9171 H         1 <0>         0.0576
     37 H5         -2.3668    1.1880    0.0380 H         1 <0>         0.1336
     38 H6         -4.5379    0.0340    0.0581 H         1 <0>         0.1310
     39 H7         -2.5180   -3.7464    0.0171 H         1 <0>         0.1362
     40 H8         -0.3523   -2.5827   -0.0128 H         1 <0>         0.1377
     41 H9         -9.0155   -5.7879   -0.5364 H         1 <0>         0.1347
     42 H10        -9.1234   -7.8887   -1.8172 H         1 <0>         0.1428
     43 H11        -7.1524   -8.7170   -3.0156 H         1 <0>         0.1611
     44 H12        -3.8891   -7.2900   -2.8105 H         1 <0>         0.4224
     45 H13        -3.0684   -8.1812   -5.1908 H         1 <0>         0.1071
     46 H14        -3.1792   -9.5828   -4.0992 H         1 <0>         0.1076
     47 H15        -4.3454  -11.5996   -4.7807 H         1 <0>         0.1192
     48 H16        -5.0642  -13.0149   -6.6614 H         1 <0>         0.1198
     49 H17        -4.7787   -9.6519   -9.2883 H         1 <0>         0.1197
     50 H18        -4.0707   -8.2432   -7.3985 H         1 <0>         0.1192
     51 H19        -5.5725  -13.1633   -9.0206 H         1 <0>         0.3983
     52 H20        -5.4606  -11.8421  -10.0524 H         1 <0>         0.3983
@<TRIPOS>BOND
     1    1    2 1
     2    1   34 1
     3    1   35 1
     4    1   36 1
     5    2    3 1
     6    3    8 ar
     7    3    4 ar
     8    4    5 ar
     9    4   37 1
    10    5    6 ar
    11    5   38 1
    12    6    7 ar
    13    6    9 1
    14    7    8 ar
    15    7   39 1
    16    8   40 1
    17    9   10 1
    18    9   13 2
    19   10   21 1
    20   10   11 2
    21   11   15 1
    22   11   12 1
    23   12   14 1
    24   12   13 1
    25   15   20 ar
    26   15   16 ar
    27   16   17 ar
    28   16   41 1
    29   17   18 ar
    30   17   42 1
    31   18   19 ar
    32   18   43 1
    33   19   20 ar
    34   19   23 1
    35   20   21 1
    36   21   22 2
    37   23   24 am
    38   23   44 1
    39   24   25 2
    40   24   26 1
    41   26   27 1
    42   26   45 1
    43   26   46 1
    44   27   32 ar
    45   27   28 ar
    46   28   29 ar
    47   28   47 1
    48   29   30 ar
    49   29   48 1
    50   30   31 ar
    51   30   33 1
    52   31   32 ar
    53   31   49 1
    54   32   50 1
    55   33   51 1
    56   33   52 1
@<TRIPOS>MOLECULE
CHEMBL232556
   45    48     0     0     0
SMALL
USER_CHARGES

@<TRIPOS>ATOM
      1 C1          0.3021    1.5053   -0.0258 C.3       1 <0>        -0.1136
      2 C2          0.3033   -0.0017   -0.0319 C.ar      1 <0>        -0.1047
      3 C3          0.0422   -0.6824   -1.2010 C.ar      1 <0>        -0.0101
      4 C4          0.0438   -2.0776   -1.2042 C.ar      1 <0>        -0.2114
      5 C5         -0.2311   -2.8391   -2.4379 C.2       1 <0>         0.4036
      6 O1         -0.4681   -2.2730   -3.4927 O.2       1 <0>        -0.4566
      7 C6         -0.2085   -4.2531   -2.3502 C.2       1 <0>        -0.0442
      8 C7          0.0634   -4.8483   -1.1417 C.2       1 <0>         0.1386
      9 O2          0.3108   -4.1351   -0.0306 O.3       1 <0>        -0.1970
     10 C8          0.3099   -2.7859   -0.0229 C.ar      1 <0>         0.1655
     11 C9          0.5718   -2.0798    1.1519 C.ar      1 <0>         0.1095
     12 C10         0.5726   -0.6957    1.1376 C.ar      1 <0>        -0.0283
     13 N1          0.8402   -2.7710    2.3430 N.am      1 <0>        -0.5302
     14 C11         2.0735   -3.1367    2.7447 C.2       1 <0>         0.5229
     15 O3          3.1208   -2.9381    2.1670 O.2       1 <0>        -0.4526
     16 C12         1.8791   -3.8472    4.0695 C.3       1 <0>         0.0675
     17 N2          0.4221   -3.7944    4.2802 N.am      1 <0>        -0.6258
     18 C13        -0.0961   -3.1434    3.2232 C.2       1 <0>         0.7001
     19 O4         -1.2827   -2.9214    3.0818 O.2       1 <0>        -0.5263
     20 C14        -0.3177   -4.3403    5.4208 C.3       1 <0>         0.1191
     21 C15         0.0838   -6.3203   -1.0619 C.ar      1 <0>        -0.0437
     22 C16         0.7881   -7.0639   -2.0132 C.ar      1 <0>        -0.0553
     23 C17         0.8063   -8.4399   -1.9365 C.ar      1 <0>        -0.1322
     24 C18         0.1260   -9.0905   -0.9164 C.ar      1 <0>         0.1040
     25 C19        -0.5788   -8.3556    0.0353 C.ar      1 <0>         0.0778
     26 C20        -0.5965   -6.9756   -0.0314 C.ar      1 <0>        -0.0949
     27 O5         -1.2448   -8.9967    1.0328 O.3       1 <0>        -0.4826
     28 O6          0.1469  -10.4472   -0.8458 O.3       1 <0>        -0.4850
     29 O7         -0.4541   -5.0140   -3.4514 O.3       1 <0>        -0.4470
     30 H1          1.3035    1.8703   -0.2540 H         1 <0>         0.0793
     31 H2         -0.3979    1.8711   -0.7769 H         1 <0>         0.0764
     32 H3         -0.0001    1.8644    0.9580 H         1 <0>         0.0738
     33 H4         -0.1632   -0.1383   -2.1110 H         1 <0>         0.1531
     34 H5          0.7806   -0.1514    2.0469 H         1 <0>         0.1474
     35 H6          2.2199   -4.8805    4.0041 H         1 <0>         0.1277
     36 H7          2.4014   -3.3199    4.8678 H         1 <0>         0.1287
     37 H8         -0.3971   -3.5815    6.1992 H         1 <0>         0.0660
     38 H9         -1.3161   -4.6359    5.0983 H         1 <0>         0.0846
     39 H10         0.2096   -5.2098    5.8133 H         1 <0>         0.0836
     40 H11         1.3177   -6.5603   -2.8084 H         1 <0>         0.1411
     41 H12         1.3508   -9.0133   -2.6721 H         1 <0>         0.1439
     42 H13        -1.1382   -6.4048    0.7083 H         1 <0>         0.1381
     43 H14        -0.7146   -9.1449    1.8278 H         1 <0>         0.3884
     44 H15         0.8760  -10.8025   -0.3192 H         1 <0>         0.3919
     45 H16        -0.6347   -4.5015   -4.2513 H         1 <0>         0.4089
@<TRIPOS>BOND
     1    1    2 1
     2    1   30 1
     3    1   31 1
     4    1   32 1
     5    2   12 ar
     6    2    3 ar
     7    3    4 ar
     8    3   33 1
     9    4   10 ar
    10    4    5 1
    11    5    6 2
    12    5    7 1
    13    7    8 2
    14    7   29 1
    15    8    9 1
    16    8   21 1
    17    9   10 1
    18   10   11 ar
    19   11   12 ar
    20   11   13 1
    21   12   34 1
    22   13   18 am
    23   13   14 am
    24   14   15 2
    25   14   16 1
    26   16   17 1
    27   16   35 1
    28   16   36 1
    29   17   18 am
    30   17   20 1
    31   18   19 2
    32   20   37 1
    33   20   38 1
    34   20   39 1
    35   21   26 ar
    36   21   22 ar
    37   22   23 ar
    38   22   40 1
    39   23   24 ar
    40   23   41 1
    41   24   25 ar
    42   24   28 1
    43   25   26 ar
    44   25   27 1
    45   26   42 1
    46   27   43 1
    47   28   44 1
    48   29   45 1
@<TRIPOS>MOLECULE
CHEMBL232556
   44    47     0     0     0
SMALL
USER_CHARGES

@<TRIPOS>ATOM
      1 C1          0.3020    1.5053   -0.0257 C.3       1 <0>        -0.0996
      2 C2          0.3032   -0.0017   -0.0319 C.ar      1 <0>        -0.1520
      3 C3          0.0422   -0.6824   -1.2010 C.ar      1 <0>        -0.0037
      4 C4          0.0438   -2.0776   -1.2042 C.ar      1 <0>        -0.2410
      5 C5         -0.2310   -2.8391   -2.4379 C.2       1 <0>         0.3928
      6 O1         -0.4681   -2.2730   -3.4927 O.2       1 <0>        -0.4636
      7 C6         -0.2085   -4.2531   -2.3503 C.2       1 <0>         0.1632
      8 C7          0.0634   -4.8483   -1.1417 C.2       1 <0>        -0.1873
      9 O2          0.3108   -4.1351   -0.0306 O.3       1 <0>        -0.2020
     10 C8          0.3099   -2.7859   -0.0229 C.ar      1 <0>         0.1975
     11 C9          0.5717   -2.0798    1.1519 C.ar      1 <0>         0.0684
     12 C10         0.5725   -0.6957    1.1376 C.ar      1 <0>        -0.0302
     13 N1          0.8400   -2.7710    2.3431 N.am      1 <0>        -0.5159
     14 C11         2.0733   -3.1367    2.7448 C.2       1 <0>         0.5220
     15 O3          3.1206   -2.9381    2.1671 O.2       1 <0>        -0.4589
     16 C12         1.8789   -3.8472    4.0696 C.3       1 <0>         0.0686
     17 N2          0.4219   -3.7944    4.2803 N.am      1 <0>        -0.6317
     18 C13        -0.0963   -3.1434    3.2232 C.2       1 <0>         0.7012
     19 O4         -1.2829   -2.9214    3.0818 O.2       1 <0>        -0.5281
     20 C14        -0.3180   -4.3403    5.4208 C.3       1 <0>         0.1228
     21 C15         0.0838   -6.3203   -1.0619 C.ar      1 <0>         0.0673
     22 C16         0.7881   -7.0639   -2.0132 C.ar      1 <0>        -0.0754
     23 C17         0.8063   -8.4399   -1.9365 C.ar      1 <0>        -0.1308
     24 C18         0.1260   -9.0905   -0.9164 C.ar      1 <0>         0.0479
     25 C19        -0.5788   -8.3556    0.0353 C.ar      1 <0>         0.0735
     26 C20        -0.5965   -6.9756   -0.0314 C.ar      1 <0>        -0.1387
     27 O5         -1.2448   -8.9967    1.0328 O.3       1 <0>        -0.4903
     28 O6          0.1469  -10.4472   -0.8458 O.3       1 <0>        -0.4903
     29 O7         -0.4540   -5.0140   -3.4514 O.3       1 <0>        -0.6500
     30 H1          1.3034    1.8703   -0.2539 H         1 <0>         0.0664
     31 H2         -0.3979    1.8711   -0.7769 H         1 <0>         0.0666
     32 H3         -0.0002    1.8644    0.9580 H         1 <0>         0.0628
     33 H4         -0.1632   -0.1383   -2.1111 H         1 <0>         0.1384
     34 H5          0.7804   -0.1514    2.0470 H         1 <0>         0.1307
     35 H6          2.2197   -4.8805    4.0042 H         1 <0>         0.1227
     36 H7          2.4012   -3.3199    4.8679 H         1 <0>         0.1216
     37 H8         -0.3974   -3.5815    6.1992 H         1 <0>         0.0604
     38 H9         -1.3164   -4.6359    5.0983 H         1 <0>         0.0824
     39 H10         0.2093   -5.2098    5.8134 H         1 <0>         0.0791
     40 H11         1.3177   -6.5603   -2.8084 H         1 <0>         0.1333
     41 H12         1.3508   -9.0133   -2.6721 H         1 <0>         0.1267
     42 H13        -1.1382   -6.4048    0.7083 H         1 <0>         0.1238
     43 H14        -0.7146   -9.1449    1.8278 H         1 <0>         0.3755
     44 H15         0.8760  -10.8025   -0.3192 H         1 <0>         0.3739
@<TRIPOS>BOND
     1    1    2 1
     2    1   30 1
     3    1   31 1
     4    1   32 1
     5    2   12 ar
     6    2    3 ar
     7    3    4 ar
     8    3   33 1
     9    4   10 ar
    10    4    5 1
    11    5    6 2
    12    5    7 1
    13    7    8 2
    14    7   29 1
    15    8    9 1
    16    8   21 1
    17    9   10 1
    18   10   11 ar
    19   11   12 ar
    20   11   13 1
    21   12   34 1
    22   13   18 am
    23   13   14 am
    24   14   15 2
    25   14   16 1
    26   16   17 1
    27   16   35 1
    28   16   36 1
    29   17   18 am
    30   17   20 1
    31   18   19 2
    32   20   37 1
    33   20   38 1
    34   20   39 1
    35   21   26 ar
    36   21   22 ar
    37   22   23 ar
    38   22   40 1
    39   23   24 ar
    40   23   41 1
    41   24   25 ar
    42   24   28 1
    43   25   26 ar
    44   25   27 1
    45   26   42 1
    46   27   43 1
    47   28   44 1
@<TRIPOS>MOLECULE
CHEMBL1076721
   35    37     0     0     0
SMALL
USER_CHARGES

@<TRIPOS>ATOM
      1 C1         -0.0173    1.4248    0.0099 C.3       1 <0>         0.0240
      2 O1          0.0021   -0.0041    0.0020 O.3       1 <0>        -0.3133
      3 C2          0.6056   -0.6070   -1.0554 C.ar      1 <0>         0.1516
      4 C3          1.1724    0.1642   -2.0616 C.ar      1 <0>        -0.2146
      5 C4          1.7857   -0.4443   -3.1360 C.ar      1 <0>        -0.0332
      6 C5          1.8364   -1.8363   -3.2117 C.ar      1 <0>        -0.0782
      7 C6          1.2660   -2.6079   -2.1992 C.ar      1 <0>        -0.0397
      8 C7          0.6593   -1.9928   -1.1247 C.ar      1 <0>        -0.1550
      9 C8          2.4940   -2.4936   -4.3649 C.2       1 <0>         0.2232
     10 N1          3.0688   -1.8941   -5.3728 N.2       1 <0>        -0.2291
     11 N2          3.5876   -2.8155   -6.2816 N.am      1 <0>        -0.5510
     12 C9          3.3484   -4.0738   -5.8614 C.2       1 <0>         0.5173
     13 O2          3.6698   -5.1068   -6.4230 O.2       1 <0>        -0.5243
     14 C10         2.6267   -3.9492   -4.5845 C.2       1 <0>        -0.0977
     15 N3          2.1920   -4.9227   -3.8078 N.2       1 <0>        -0.0741
     16 N4          2.3892   -6.1525   -4.1436 N.pl3     1 <0>        -0.4596
     17 C11         1.9295   -7.1823   -3.3221 C.ar      1 <0>         0.0984
     18 C12         2.1420   -8.5150   -3.6720 C.ar      1 <0>        -0.0996
     19 C13         1.6667   -9.5012   -2.8241 C.ar      1 <0>        -0.1378
     20 C14         1.0024   -9.1355   -1.6676 C.ar      1 <0>         0.0859
     21 N5          0.8169   -7.8655   -1.3648 N.ar      1 <0>        -0.4549
     22 C15         1.2579   -6.8950   -2.1398 C.ar      1 <0>         0.0964
     23 H1          1.0053    1.8021    0.0021 H         1 <0>         0.0588
     24 H2         -0.5445    1.7859   -0.8732 H         1 <0>         0.0588
     25 H3         -0.5275    1.7763    0.9067 H         1 <0>         0.1028
     26 H4          1.1325    1.2418   -2.0025 H         1 <0>         0.1358
     27 H5          2.2260    0.1560   -3.9184 H         1 <0>         0.1382
     28 H6          1.3035   -3.6858   -2.2547 H         1 <0>         0.1445
     29 H7          0.2216   -2.5895   -0.3381 H         1 <0>         0.1402
     30 H8          4.0544   -2.5840   -7.0998 H         1 <0>         0.4451
     31 H9          2.8572   -6.3614   -4.9672 H         1 <0>         0.4149
     32 H10         2.6640   -8.7718   -4.5819 H         1 <0>         0.1444
     33 H11         1.8129  -10.5442   -3.0634 H         1 <0>         0.1478
     34 H12         0.6298   -9.9010   -1.0031 H         1 <0>         0.1650
     35 H13         1.0915   -5.8664   -1.8558 H         1 <0>         0.1690
@<TRIPOS>BOND
     1    1    2 1
     2    1   23 1
     3    1   24 1
     4    1   25 1
     5    2    3 1
     6    3    8 ar
     7    3    4 ar
     8    4    5 ar
     9    4   26 1
    10    5    6 ar
    11    5   27 1
    12    6    7 ar
    13    6    9 1
    14    7    8 ar
    15    7   28 1
    16    8   29 1
    17    9   14 1
    18    9   10 2
    19   10   11 1
    20   11   12 am
    21   11   30 1
    22   12   13 2
    23   12   14 1
    24   14   15 2
    25   15   16 1
    26   16   17 1
    27   16   31 1
    28   17   22 ar
    29   17   18 ar
    30   18   19 ar
    31   18   32 1
    32   19   20 ar
    33   19   33 1
    34   20   21 ar
    35   20   34 1
    36   21   22 ar
    37   22   35 1
@<TRIPOS>MOLECULE
CHEMBL186661
   57    61     0     0     0
SMALL
USER_CHARGES

@<TRIPOS>ATOM
      1 C1          0.0010    1.4491   -0.0343 C.3       1 <0>         0.0248
      2 O1          0.0199    0.0202   -0.0304 O.3       1 <0>        -0.3144
      3 C2          0.6173   -0.5915   -1.0862 C.ar      1 <0>         0.1446
      4 C3          1.1786    0.1709   -2.1019 C.ar      1 <0>        -0.2134
      5 C4          1.7856   -0.4468   -3.1747 C.ar      1 <0>        -0.0420
      6 C5          1.8354   -1.8391   -3.2390 C.ar      1 <0>        -0.0738
      7 C6          1.2706   -2.6019   -2.2172 C.ar      1 <0>        -0.0350
      8 C7          0.6701   -1.9779   -1.1444 C.ar      1 <0>        -0.1525
      9 C8          2.4866   -2.5064   -4.3909 C.2       1 <0>         0.2024
     10 C9          3.2208   -3.7157   -4.3471 C.2       1 <0>        -0.3139
     11 C10         3.6546   -3.9817   -5.6391 C.2       1 <0>         0.1589
     12 N1          3.2047   -2.9817   -6.4274 N.pl3     1 <0>        -0.4235
     13 H1          3.3556   -2.9021   -7.3823 H         1 <0>         0.4475
     14 N2          2.4799   -2.0824   -5.6376 N.2       1 <0>        -0.2703
     15 C11         4.4309   -5.2449   -5.6341 C.ar      1 <0>         0.0131
     16 C12         5.0732   -5.9443   -6.6451 C.ar      1 <0>        -0.1087
     17 C13         5.7422   -7.1277   -6.3596 C.ar      1 <0>        -0.0617
     18 C14         5.7766   -7.6203   -5.0743 C.ar      1 <0>        -0.1241
     19 C15         5.1364   -6.9317   -4.0412 C.ar      1 <0>         0.2474
     20 C16         4.4623   -5.7429   -4.3181 C.ar      1 <0>        -0.1960
     21 C17         3.7032   -4.7992   -3.4669 C.2       1 <0>         0.4878
     22 O2          3.5138   -4.8970   -2.2706 O.2       1 <0>        -0.4370
     23 N3          5.1713   -7.4293   -2.7429 N.am      1 <0>        -0.6755
     24 C18         6.1759   -8.2417   -2.3593 C.2       1 <0>         0.7162
     25 O3          7.1047   -8.4576   -3.1135 O.2       1 <0>        -0.5452
     26 N4          6.1508   -8.8148   -1.1397 N.am      1 <0>        -0.5167
     27 N5          5.0805   -8.5661   -0.2707 N.am      1 <0>        -0.5327
     28 C19         5.0554   -9.1391    0.9489 C.2       1 <0>         0.5730
     29 O4          5.9617   -9.8720    1.2949 O.2       1 <0>        -0.5260
     30 C20         3.9277   -8.8770    1.8645 C.ar      1 <0>        -0.1760
     31 C21         2.8824   -8.0396    1.4665 C.ar      1 <0>        -0.0429
     32 C22         1.8321   -7.7975    2.3236 C.ar      1 <0>        -0.1554
     33 C23         1.8110   -8.3850    3.5831 C.ar      1 <0>         0.1639
     34 C24         2.8492   -9.2182    3.9829 C.ar      1 <0>        -0.2171
     35 C25         3.8999   -9.4703    3.1293 C.ar      1 <0>        -0.0077
     36 O5          0.7742   -8.1439    4.4249 O.3       1 <0>        -0.3099
     37 C26         0.8158   -8.7796    5.7041 C.3       1 <0>         0.0225
     38 H2          1.0237    1.8259   -0.0509 H         1 <0>         0.0576
     39 H3         -0.5310    1.8030   -0.9173 H         1 <0>         0.0577
     40 H4         -0.5040    1.8082    0.8624 H         1 <0>         0.1023
     41 H5          1.1394    1.2491   -2.0516 H         1 <0>         0.1337
     42 H6          2.2217    0.1468   -3.9645 H         1 <0>         0.1311
     43 H7          1.3072   -3.6803   -2.2643 H         1 <0>         0.1361
     44 H8          0.2365   -2.5681   -0.3506 H         1 <0>         0.1377
     45 H9          5.0527   -5.5679   -7.6572 H         1 <0>         0.1365
     46 H10         6.2395   -7.6663   -7.1527 H         1 <0>         0.1454
     47 H11         6.2997   -8.5416   -4.8643 H         1 <0>         0.1642
     48 H12         4.4725   -7.1917   -2.1135 H         1 <0>         0.4121
     49 H13         6.8739   -9.3995   -0.8637 H         1 <0>         0.4506
     50 H14         4.3574   -7.9814   -0.5468 H         1 <0>         0.4203
     51 H15         2.8982   -7.5825    0.4881 H         1 <0>         0.1318
     52 H16         1.0240   -7.1501    2.0168 H         1 <0>         0.1431
     53 H17         2.8293   -9.6725    4.9625 H         1 <0>         0.1396
     54 H18         4.7036  -10.1219    3.4387 H         1 <0>         0.1429
     55 H19         0.8402   -9.8613    5.5717 H         1 <0>         0.0605
     56 H20         1.7090   -8.4590    6.2402 H         1 <0>         0.0607
     57 H21        -0.0700   -8.5035    6.2760 H         1 <0>         0.1054
@<TRIPOS>BOND
     1    1    2 1
     2    1   38 1
     3    1   39 1
     4    1   40 1
     5    2    3 1
     6    3    8 ar
     7    3    4 ar
     8    4    5 ar
     9    4   41 1
    10    5    6 ar
    11    5   42 1
    12    6    7 ar
    13    6    9 1
    14    7    8 ar
    15    7   43 1
    16    8   44 1
    17    9   14 2
    18    9   10 1
    19   10   21 1
    20   10   11 2
    21   11   12 1
    22   11   15 1
    23   12   13 1
    24   12   14 1
    25   15   20 ar
    26   15   16 ar
    27   16   17 ar
    28   16   45 1
    29   17   18 ar
    30   17   46 1
    31   18   19 ar
    32   18   47 1
    33   19   20 ar
    34   19   23 1
    35   20   21 1
    36   21   22 2
    37   23   24 am
    38   23   48 1
    39   24   25 2
    40   24   26 am
    41   26   27 1
    42   26   49 1
    43   27   28 am
    44   27   50 1
    45   28   29 2
    46   28   30 1
    47   30   35 ar
    48   30   31 ar
    49   31   32 ar
    50   31   51 1
    51   32   33 ar
    52   32   52 1
    53   33   34 ar
    54   33   36 1
    55   34   35 ar
    56   34   53 1
    57   35   54 1
    58   36   37 1
    59   37   55 1
    60   37   56 1
    61   37   57 1
@<TRIPOS>MOLECULE
CHEMBL186661
   57    61     0     0     0
SMALL
USER_CHARGES

@<TRIPOS>ATOM
      1 C1         -0.0678    1.4513    0.0188 C.3       1 <0>         0.0237
      2 O1         -0.0369    0.0227    0.0053 O.3       1 <0>        -0.3115
      3 C2         -1.2331   -0.6199    0.0165 C.ar      1 <0>         0.1523
      4 C3         -2.4132    0.1133    0.0343 C.ar      1 <0>        -0.2103
      5 C4         -3.6288   -0.5344    0.0457 C.ar      1 <0>        -0.0510
      6 C5         -3.6741   -1.9313    0.0389 C.ar      1 <0>        -0.1024
      7 C6         -2.4845   -2.6649    0.0205 C.ar      1 <0>        -0.0254
      8 C7         -1.2734   -2.0088    0.0043 C.ar      1 <0>        -0.1499
      9 C8         -4.9736   -2.6295    0.0516 C.2       1 <0>         0.2441
     10 C9         -5.3348   -3.7111   -0.7400 C.2       1 <0>        -0.3327
     11 C10        -6.7105   -4.0568   -0.3729 C.2       1 <0>         0.1276
     12 N1         -7.0867   -3.2199    0.5622 N.2       1 <0>        -0.2335
     13 H1         -6.0709   -1.6251    1.5055 H         1 <0>         0.4487
     14 N2         -6.0408   -2.3364    0.8467 N.pl3     1 <0>        -0.4652
     15 C11        -7.1190   -5.2133   -1.2084 C.ar      1 <0>         0.0436
     16 C12        -8.3055   -5.9329   -1.2703 C.ar      1 <0>        -0.1071
     17 C13        -8.4348   -6.9910   -2.1548 C.ar      1 <0>        -0.0593
     18 C14        -7.3895   -7.3426   -2.9841 C.ar      1 <0>        -0.1300
     19 C15        -6.1920   -6.6364   -2.9397 C.ar      1 <0>         0.2421
     20 C16        -6.0486   -5.5643   -2.0495 C.ar      1 <0>        -0.1951
     21 C17        -4.9171   -4.6518   -1.7884 C.2       1 <0>         0.4944
     22 O2         -3.8340   -4.6747   -2.3422 O.2       1 <0>        -0.4498
     23 N3         -5.1390   -6.9942   -3.7770 N.am      1 <0>        -0.6756
     24 C18        -5.3873   -7.6393   -4.9340 C.2       1 <0>         0.7159
     25 O3         -6.5340   -7.8181   -5.2964 O.2       1 <0>        -0.5452
     26 N4         -4.3645   -8.0863   -5.6893 N.am      1 <0>        -0.5178
     27 N5         -3.0431   -7.8803   -5.2718 N.am      1 <0>        -0.5321
     28 C19        -2.0202   -8.3273   -6.0271 C.2       1 <0>         0.5724
     29 O4         -2.2443   -8.9092   -7.0709 O.2       1 <0>        -0.5265
     30 C20        -0.6281   -8.1103   -5.5872 C.ar      1 <0>        -0.1752
     31 C21        -0.3687   -7.4467   -4.3852 C.ar      1 <0>        -0.0429
     32 C22         0.9315   -7.2462   -3.9783 C.ar      1 <0>        -0.1556
     33 C23         1.9851   -7.7028   -4.7615 C.ar      1 <0>         0.1632
     34 C24         1.7312   -8.3629   -5.9581 C.ar      1 <0>        -0.2170
     35 C25         0.4337   -8.5729   -6.3689 C.ar      1 <0>        -0.0079
     36 O5          3.2651   -7.5033   -4.3570 O.3       1 <0>        -0.3103
     37 C26         4.2995   -7.9982   -5.2097 C.3       1 <0>         0.0225
     38 H2          0.9516    1.8369    0.0078 H         1 <0>         0.1046
     39 H3         -0.6021    1.8115   -0.8603 H         1 <0>         0.0591
     40 H4         -0.5766    1.7952    0.9194 H         1 <0>         0.0587
     41 H5         -2.3774    1.1927    0.0395 H         1 <0>         0.1367
     42 H6         -4.5456    0.0363    0.0603 H         1 <0>         0.1290
     43 H7         -2.5149   -3.7444    0.0152 H         1 <0>         0.1382
     44 H8         -0.3538   -2.5748   -0.0137 H         1 <0>         0.1413
     45 H9         -9.1302   -5.6667   -0.6259 H         1 <0>         0.1393
     46 H10        -9.3608   -7.5452   -2.1954 H         1 <0>         0.1444
     47 H11        -7.5015   -8.1694   -3.6699 H         1 <0>         0.1627
     48 H12        -4.2265   -6.7792   -3.5278 H         1 <0>         0.4113
     49 H13        -4.5432   -8.5506   -6.5220 H         1 <0>         0.4501
     50 H14        -2.8644   -7.4160   -4.4391 H         1 <0>         0.4203
     51 H15        -1.1867   -7.0913   -3.7762 H         1 <0>         0.1320
     52 H16         1.1329   -6.7331   -3.0495 H         1 <0>         0.1425
     53 H17         2.5525   -8.7160   -6.5640 H         1 <0>         0.1395
     54 H18         0.2372   -9.0904   -7.2962 H         1 <0>         0.1430
     55 H19         5.2713   -7.7731   -4.7703 H         1 <0>         0.1052
     56 H20         4.1927   -9.0771   -5.3220 H         1 <0>         0.0605
     57 H21         4.2236   -7.5219   -6.1872 H         1 <0>         0.0606
@<TRIPOS>BOND
     1    1    2 1
     2    1   38 1
     3    1   39 1
     4    1   40 1
     5    2    3 1
     6    3    8 ar
     7    3    4 ar
     8    4    5 ar
     9    4   41 1
    10    5    6 ar
    11    5   42 1
    12    6    7 ar
    13    6    9 1
    14    7    8 ar
    15    7   43 1
    16    8   44 1
    17    9   10 2
    18    9   14 1
    19   10   21 1
    20   10   11 1
    21   11   15 1
    22   11   12 2
    23   12   14 1
    24   13   14 1
    25   15   20 ar
    26   15   16 ar
    27   16   17 ar
    28   16   45 1
    29   17   18 ar
    30   17   46 1
    31   18   19 ar
    32   18   47 1
    33   19   20 ar
    34   19   23 1
    35   20   21 1
    36   21   22 2
    37   23   24 am
    38   23   48 1
    39   24   25 2
    40   24   26 am
    41   26   27 1
    42   26   49 1
    43   27   28 am
    44   27   50 1
    45   28   29 2
    46   28   30 1
    47   30   35 ar
    48   30   31 ar
    49   31   32 ar
    50   31   51 1
    51   32   33 ar
    52   32   52 1
    53   33   34 ar
    54   33   36 1
    55   34   35 ar
    56   34   53 1
    57   35   54 1
    58   36   37 1
    59   37   55 1
    60   37   56 1
    61   37   57 1
@<TRIPOS>MOLECULE
CHEMBL147012
   51    55     0     0     0
SMALL
USER_CHARGES

@<TRIPOS>ATOM
      1 C1          0.0250    1.4181    0.0139 C.3       1 <0>         0.0239
      2 O1          0.0476   -0.0107    0.0040 O.3       1 <0>        -0.3121
      3 C2          0.6422   -0.6104   -1.0593 C.ar      1 <0>         0.1510
      4 C3          1.1977    0.1643   -2.0703 C.ar      1 <0>        -0.2105
      5 C4          1.8014   -0.4400   -3.1510 C.ar      1 <0>        -0.0519
      6 C5          1.8550   -1.8344   -3.2295 C.ar      1 <0>        -0.0998
      7 C6          1.2953   -2.6097   -2.2102 C.ar      1 <0>        -0.0252
      8 C7          0.6982   -1.9970   -1.1305 C.ar      1 <0>        -0.1499
      9 C8          2.5001   -2.4860   -4.3852 C.2       1 <0>         0.2392
     10 C9          2.0009   -3.5601   -5.1092 C.2       1 <0>        -0.3298
     11 C10         2.9852   -3.8536   -6.1541 C.2       1 <0>         0.1281
     12 N1          3.9665   -2.9966   -6.0172 N.2       1 <0>        -0.2360
     13 N2          3.6941   -2.1418   -4.9446 N.pl3     1 <0>        -0.4664
     14 H1          4.2666   -1.4187   -4.6442 H         1 <0>         0.4477
     15 C11         2.4714   -5.0013   -6.9423 C.ar      1 <0>         0.0419
     16 C12         2.9973   -5.6792   -8.0348 C.ar      1 <0>        -0.1124
     17 C13         2.3054   -6.7388   -8.5980 C.ar      1 <0>        -0.0617
     18 C14         1.0879   -7.1337   -8.0826 C.ar      1 <0>        -0.1343
     19 C15         0.5415   -6.4695   -6.9894 C.ar      1 <0>         0.2465
     20 C16         1.2316   -5.3967   -6.4105 C.ar      1 <0>        -0.1971
     21 C17         0.9025   -4.5231   -5.2661 C.2       1 <0>         0.4908
     22 O2         -0.0978   -4.5895   -4.5767 O.2       1 <0>        -0.4420
     23 N3         -0.6875   -6.8697   -6.4721 N.am      1 <0>        -0.6609
     24 C18        -1.1148   -8.1351   -6.6526 C.2       1 <0>         0.7326
     25 O3         -0.3850   -8.9542   -7.1766 O.2       1 <0>        -0.5694
     26 N4         -2.3510   -8.4926   -6.2522 N.am      1 <0>        -0.5854
     27 N5         -3.1710   -7.5723   -5.6634 N.3       1 <0>        -0.3015
     28 C19        -4.4059   -7.3808   -6.4534 C.3       1 <0>         0.0213
     29 C20        -5.4653   -8.2675   -5.7526 C.3       1 <0>        -0.1551
     30 C21        -5.0854   -8.0885   -4.2591 C.3       1 <0>        -0.1417
     31 C22        -3.5457   -7.9935   -4.3010 C.3       1 <0>         0.0205
     32 H2          1.0465    1.7978   -0.0031 H         1 <0>         0.0584
     33 H3         -0.5115    1.7791   -0.8636 H         1 <0>         0.0589
     34 H4         -0.4775    1.7673    0.9160 H         1 <0>         0.1041
     35 H5          1.1559    1.2417   -2.0088 H         1 <0>         0.1363
     36 H6          2.2323    0.1629   -3.9366 H         1 <0>         0.1289
     37 H7          1.3345   -3.6875   -2.2669 H         1 <0>         0.1381
     38 H8          0.2693   -2.5953   -0.3403 H         1 <0>         0.1406
     39 H9          3.9492   -5.3787   -8.4469 H         1 <0>         0.1368
     40 H10         2.7219   -7.2596   -9.4474 H         1 <0>         0.1414
     41 H11         0.5572   -7.9612   -8.5297 H         1 <0>         0.1608
     42 H12        -1.2363   -6.2378   -5.9818 H         1 <0>         0.4285
     43 H13        -2.6585   -9.4033   -6.3820 H         1 <0>         0.4010
     44 H14        -4.7120   -6.3349   -6.4315 H         1 <0>         0.1005
     45 H15        -4.2542   -7.7112   -7.4809 H         1 <0>         0.0834
     46 H16        -6.4727   -7.8990   -5.9461 H         1 <0>         0.0836
     47 H17        -5.3667   -9.3091   -6.0584 H         1 <0>         0.0698
     48 H18        -5.5174   -7.1713   -3.8588 H         1 <0>         0.0797
     49 H19        -5.4025   -8.9522   -3.6746 H         1 <0>         0.0778
     50 H20        -3.1080   -8.9670   -4.0803 H         1 <0>         0.0732
     51 H21        -3.1999   -7.2561   -3.5766 H         1 <0>         0.0973
@<TRIPOS>BOND
     1    1    2 1
     2    1   32 1
     3    1   33 1
     4    1   34 1
     5    2    3 1
     6    3    8 ar
     7    3    4 ar
     8    4    5 ar
     9    4   35 1
    10    5    6 ar
    11    5   36 1
    12    6    7 ar
    13    6    9 1
    14    7    8 ar
    15    7   37 1
    16    8   38 1
    17    9   13 1
    18    9   10 2
    19   10   21 1
    20   10   11 1
    21   11   12 2
    22   11   15 1
    23   12   13 1
    24   13   14 1
    25   15   20 ar
    26   15   16 ar
    27   16   17 ar
    28   16   39 1
    29   17   18 ar
    30   17   40 1
    31   18   19 ar
    32   18   41 1
    33   19   20 ar
    34   19   23 1
    35   20   21 1
    36   21   22 2
    37   23   24 am
    38   23   42 1
    39   24   25 2
    40   24   26 am
    41   26   27 1
    42   26   43 1
    43   27   31 1
    44   27   28 1
    45   28   29 1
    46   28   44 1
    47   28   45 1
    48   29   30 1
    49   29   46 1
    50   29   47 1
    51   30   31 1
    52   30   48 1
    53   30   49 1
    54   31   50 1
    55   31   51 1
@<TRIPOS>MOLECULE
CHEMBL147012
   51    55     0     0     0
SMALL
USER_CHARGES

@<TRIPOS>ATOM
      1 C1         -0.0641    1.4471    0.0169 C.3       1 <0>         0.0251
      2 O1         -0.0346    0.0184    0.0035 O.3       1 <0>        -0.3149
      3 C2         -1.2319   -0.6234    0.0159 C.ar      1 <0>         0.1434
      4 C3         -2.4109    0.1100    0.0347 C.ar      1 <0>        -0.2137
      5 C4         -3.6277   -0.5382    0.0474 C.ar      1 <0>        -0.0427
      6 C5         -3.6735   -1.9321    0.0412 C.ar      1 <0>        -0.0721
      7 C6         -2.4876   -2.6657    0.0224 C.ar      1 <0>        -0.0345
      8 C7         -1.2742   -2.0113    0.0041 C.ar      1 <0>        -0.1524
      9 C8         -4.9797   -2.6322    0.0553 C.2       1 <0>         0.2002
     10 C9         -5.2800   -3.8487   -0.6029 C.2       1 <0>        -0.3127
     11 C10        -6.6082   -4.1482   -0.3302 C.2       1 <0>         0.1581
     12 N1         -7.0891   -3.1605    0.4554 N.pl3     1 <0>        -0.4255
     13 N2         -6.0649   -2.2357    0.6870 N.2       1 <0>        -0.2720
     14 H1         -7.9925   -3.1037    0.8041 H         1 <0>         0.4467
     15 C11        -6.9618   -5.4201   -1.0052 C.ar      1 <0>         0.0122
     16 C12        -8.1409   -6.1488   -1.0542 C.ar      1 <0>        -0.1143
     17 C13        -8.2001   -7.3334   -1.7774 C.ar      1 <0>        -0.0642
     18 C14        -7.0936   -7.7980   -2.4524 C.ar      1 <0>        -0.1282
     19 C15        -5.8962   -7.0796   -2.4161 C.ar      1 <0>         0.2517
     20 C16        -5.8271   -5.8894   -1.6929 C.ar      1 <0>        -0.1984
     21 C17        -4.7338   -4.9184   -1.4626 C.2       1 <0>         0.4846
     22 O2         -3.6016   -4.9879   -1.8985 O.2       1 <0>        -0.4301
     23 N3         -4.7786   -7.5490   -3.0980 N.am      1 <0>        -0.6605
     24 C18        -4.9305   -8.3644   -4.1603 C.2       1 <0>         0.7331
     25 O3         -6.0432   -8.6078   -4.5855 O.2       1 <0>        -0.5693
     26 N4         -3.8490   -8.9101   -4.7511 N.am      1 <0>        -0.5844
     27 N5         -2.5989   -8.6367   -4.2733 N.3       1 <0>        -0.3020
     28 C19        -1.9212   -9.8717   -3.8249 C.3       1 <0>         0.0213
     29 C20        -1.0082  -10.2745   -5.0097 C.3       1 <0>        -0.1551
     30 C21        -0.5295   -8.8902   -5.5211 C.3       1 <0>        -0.1417
     31 C22        -1.7671   -7.9936   -5.3070 C.3       1 <0>         0.0201
     32 H2          0.9557    1.8317    0.0048 H         1 <0>         0.1018
     33 H3         -0.5988    1.8076   -0.8619 H         1 <0>         0.0574
     34 H4         -0.5718    1.7916    0.9178 H         1 <0>         0.0575
     35 H5         -2.3747    1.1894    0.0398 H         1 <0>         0.1333
     36 H6         -4.5443    0.0327    0.0623 H         1 <0>         0.1309
     37 H7         -2.5197   -3.7452    0.0180 H         1 <0>         0.1366
     38 H8         -0.3555   -2.5788   -0.0150 H         1 <0>         0.1373
     39 H9         -9.0152   -5.7946   -0.5285 H         1 <0>         0.1340
     40 H10        -9.1220   -7.8951   -1.8101 H         1 <0>         0.1423
     41 H11        -7.1515   -8.7205   -3.0110 H         1 <0>         0.1622
     42 H12        -3.8897   -7.2894   -2.8091 H         1 <0>         0.4293
     43 H13        -3.9584   -9.4970   -5.5156 H         1 <0>         0.4016
     44 H14        -1.3233   -9.6749   -2.9350 H         1 <0>         0.1012
     45 H15        -2.6526  -10.6551   -3.6260 H         1 <0>         0.0833
     46 H16        -0.1666  -10.8765   -4.6670 H         1 <0>         0.0840
     47 H17        -1.5749  -10.8001   -5.7782 H         1 <0>         0.0697
     48 H18         0.3132   -8.5314   -4.9302 H         1 <0>         0.0803
     49 H19        -0.2674   -8.9394   -6.5779 H         1 <0>         0.0781
     50 H20        -2.3298   -7.9101   -6.2368 H         1 <0>         0.0732
     51 H21        -1.4550   -7.0051   -4.9699 H         1 <0>         0.0980
@<TRIPOS>BOND
     1    1    2 1
     2    1   32 1
     3    1   33 1
     4    1   34 1
     5    2    3 1
     6    3    8 ar
     7    3    4 ar
     8    4    5 ar
     9    4   35 1
    10    5    6 ar
    11    5   36 1
    12    6    7 ar
    13    6    9 1
    14    7    8 ar
    15    7   37 1
    16    8   38 1
    17    9   10 1
    18    9   13 2
    19   10   21 1
    20   10   11 2
    21   11   15 1
    22   11   12 1
    23   12   14 1
    24   12   13 1
    25   15   20 ar
    26   15   16 ar
    27   16   17 ar
    28   16   39 1
    29   17   18 ar
    30   17   40 1
    31   18   19 ar
    32   18   41 1
    33   19   20 ar
    34   19   23 1
    35   20   21 1
    36   21   22 2
    37   23   24 am
    38   23   42 1
    39   24   25 2
    40   24   26 am
    41   26   27 1
    42   26   43 1
    43   27   31 1
    44   27   28 1
    45   28   29 1
    46   28   44 1
    47   28   45 1
    48   29   30 1
    49   29   46 1
    50   29   47 1
    51   30   31 1
    52   30   48 1
    53   30   49 1
    54   31   50 1
    55   31   51 1
@<TRIPOS>MOLECULE
CHEMBL147038
   54    58     0     0     0
SMALL
USER_CHARGES

@<TRIPOS>ATOM
      1 C1          0.0265    1.4356   -0.0087 C.3       1 <0>         0.0239
      2 O1          0.0364    0.0067   -0.0132 O.3       1 <0>        -0.3120
      3 C2          0.6375   -0.6024   -1.0675 C.ar      1 <0>         0.1509
      4 C3          1.2113    0.1635   -2.0750 C.ar      1 <0>        -0.2104
      5 C4          1.8216   -0.4501   -3.1466 C.ar      1 <0>        -0.0521
      6 C5          1.8636   -1.8452   -3.2195 C.ar      1 <0>        -0.0998
      7 C6          1.2855   -2.6116   -2.2037 C.ar      1 <0>        -0.0251
      8 C7          0.6818   -1.9896   -1.1331 C.ar      1 <0>        -0.1498
      9 C8          2.5157   -2.5069   -4.3655 C.2       1 <0>         0.2392
     10 C9          2.0151   -3.5792   -5.0911 C.2       1 <0>        -0.3300
     11 C10         3.0083   -3.8854   -6.1238 C.2       1 <0>         0.1279
     12 N1          3.9957   -3.0366   -5.9790 N.2       1 <0>        -0.2362
     13 N2          3.7189   -2.1754   -4.9126 N.pl3     1 <0>        -0.4665
     14 H1          4.2945   -1.4564   -4.6084 H         1 <0>         0.4477
     15 C11         2.4931   -5.0314   -6.9136 C.ar      1 <0>         0.0378
     16 C12         3.0251   -5.7181   -7.9975 C.ar      1 <0>        -0.1073
     17 C13         2.3301   -6.7735   -8.5646 C.ar      1 <0>        -0.0657
     18 C14         1.1034   -7.1556   -8.0615 C.ar      1 <0>        -0.1223
     19 C15         0.5507   -6.4825   -6.9769 C.ar      1 <0>         0.2401
     20 C16         1.2439   -5.4137   -6.3942 C.ar      1 <0>        -0.1886
     21 C17         0.9099   -4.5329   -5.2568 C.2       1 <0>         0.4895
     22 O2         -0.0987   -4.5878   -4.5785 O.2       1 <0>        -0.4374
     23 N3         -0.6875   -6.8697   -6.4721 N.am      1 <0>        -0.6639
     24 C18        -1.6428   -7.3253   -7.3065 C.2       1 <0>         0.7346
     25 O3         -1.3970   -7.4759   -8.4876 O.2       1 <0>        -0.5717
     26 N4         -2.8707   -7.6139   -6.8316 N.am      1 <0>        -0.5836
     27 N5         -3.1469   -7.4446   -5.5046 N.3       1 <0>        -0.3088
     28 C19        -3.4524   -8.7295   -4.8626 C.3       1 <0>         0.0348
     29 C20        -3.6129   -8.5225   -3.3548 C.3       1 <0>        -0.1149
     30 C21        -4.7431   -7.5216   -3.0994 C.3       1 <0>        -0.1255
     31 C22        -4.4234   -6.2082   -3.8187 C.3       1 <0>        -0.1152
     32 C23        -4.2394   -6.4823   -5.3130 C.3       1 <0>         0.0389
     33 H2          1.0516    1.8061   -0.0156 H         1 <0>         0.0584
     34 H3         -0.4968    1.7981   -0.8935 H         1 <0>         0.0588
     35 H4         -0.4829    1.7927    0.8864 H         1 <0>         0.1042
     36 H5          1.1784    1.2415   -2.0179 H         1 <0>         0.1362
     37 H6          2.2667    0.1460   -3.9296 H         1 <0>         0.1286
     38 H7          1.3157   -3.6900   -2.2560 H         1 <0>         0.1384
     39 H8          0.2388   -2.5811   -0.3455 H         1 <0>         0.1408
     40 H9          3.9843   -5.4276   -8.4000 H         1 <0>         0.1373
     41 H10         2.7515   -7.3012   -9.4074 H         1 <0>         0.1417
     42 H11         0.5703   -7.9800   -8.5116 H         1 <0>         0.1551
     43 H12        -0.8627   -6.8116   -5.5198 H         1 <0>         0.4268
     44 H13        -3.5583   -7.9418   -7.4321 H         1 <0>         0.4005
     45 H14        -4.3785   -9.1303   -5.2747 H         1 <0>         0.0456
     46 H15        -2.6389   -9.4308   -5.0483 H         1 <0>         0.0831
     47 H16        -3.8550   -9.4736   -2.8806 H         1 <0>         0.0750
     48 H17        -2.6826   -8.1347   -2.9397 H         1 <0>         0.0767
     49 H18        -5.6810   -7.9263   -3.4799 H         1 <0>         0.0608
     50 H19        -4.8322   -7.3382   -2.0286 H         1 <0>         0.0706
     51 H20        -5.2446   -5.5058   -3.6759 H         1 <0>         0.0746
     52 H21        -3.5059   -5.7840   -3.4109 H         1 <0>         0.0797
     53 H22        -3.9976   -5.5514   -5.8259 H         1 <0>         0.0841
     54 H23        -5.1618   -6.8937   -5.7230 H         1 <0>         0.0447
@<TRIPOS>BOND
     1    1    2 1
     2    1   33 1
     3    1   34 1
     4    1   35 1
     5    2    3 1
     6    3    8 ar
     7    3    4 ar
     8    4    5 ar
     9    4   36 1
    10    5    6 ar
    11    5   37 1
    12    6    7 ar
    13    6    9 1
    14    7    8 ar
    15    7   38 1
    16    8   39 1
    17    9   13 1
    18    9   10 2
    19   10   21 1
    20   10   11 1
    21   11   12 2
    22   11   15 1
    23   12   13 1
    24   13   14 1
    25   15   20 ar
    26   15   16 ar
    27   16   17 ar
    28   16   40 1
    29   17   18 ar
    30   17   41 1
    31   18   19 ar
    32   18   42 1
    33   19   20 ar
    34   19   23 1
    35   20   21 1
    36   21   22 2
    37   23   24 am
    38   23   43 1
    39   24   25 2
    40   24   26 am
    41   26   27 1
    42   26   44 1
    43   27   32 1
    44   27   28 1
    45   28   29 1
    46   28   45 1
    47   28   46 1
    48   29   30 1
    49   29   47 1
    50   29   48 1
    51   30   31 1
    52   30   49 1
    53   30   50 1
    54   31   32 1
    55   31   51 1
    56   31   52 1
    57   32   53 1
    58   32   54 1
@<TRIPOS>MOLECULE
CHEMBL147038
   54    58     0     0     0
SMALL
USER_CHARGES

@<TRIPOS>ATOM
      1 C1         -0.0084    1.4416   -0.0278 C.3       1 <0>         0.0251
      2 O1          0.0066    0.0127   -0.0352 O.3       1 <0>        -0.3148
      3 C2          0.6154   -0.5922   -1.0883 C.ar      1 <0>         0.1435
      4 C3          1.1916    0.1768   -2.0907 C.ar      1 <0>        -0.2136
      5 C4          1.8102   -0.4340   -3.1608 C.ar      1 <0>        -0.0426
      6 C5          1.8570   -1.8258   -3.2357 C.ar      1 <0>        -0.0719
      7 C6          1.2774   -2.5953   -2.2272 C.ar      1 <0>        -0.0343
      8 C7          0.6653   -1.9782   -1.1570 C.ar      1 <0>        -0.1522
      9 C8          2.5208   -2.4857   -4.3847 C.2       1 <0>         0.2001
     10 C9          3.2559   -3.6945   -4.3404 C.2       1 <0>        -0.3128
     11 C10         3.7033   -3.9525   -5.6294 C.2       1 <0>         0.1578
     12 N1          3.2604   -2.9483   -6.4164 N.pl3     1 <0>        -0.4255
     13 N2          2.5265   -2.0545   -5.6289 N.2       1 <0>        -0.2720
     14 H1          3.4210   -2.8630   -7.3693 H         1 <0>         0.4467
     15 C11         4.4807   -5.2150   -5.6239 C.ar      1 <0>         0.0079
     16 C12         5.1342   -5.9077   -6.6323 C.ar      1 <0>        -0.1093
     17 C13         5.8016   -7.0920   -6.3468 C.ar      1 <0>        -0.0681
     18 C14         5.8232   -7.5922   -5.0641 C.ar      1 <0>        -0.1167
     19 C15         5.1715   -6.9104   -4.0338 C.ar      1 <0>         0.2453
     20 C16         4.4989   -5.7208   -4.3107 C.ar      1 <0>        -0.1893
     21 C17         3.7301   -4.7829   -3.4618 C.2       1 <0>         0.4832
     22 O2          3.5279   -4.8882   -2.2682 O.2       1 <0>        -0.4256
     23 N3          5.1934   -7.4157   -2.7381 N.am      1 <0>        -0.6640
     24 C18         5.1747   -8.7478   -2.5339 C.2       1 <0>         0.7351
     25 O3          5.2214   -9.5087   -3.4810 O.2       1 <0>        -0.5717
     26 N4          5.1042   -9.2363   -1.2798 N.am      1 <0>        -0.5826
     27 N5          5.0517   -8.3814   -0.2157 N.3       1 <0>        -0.3096
     28 C19         6.2413   -8.5243    0.6334 C.3       1 <0>         0.0348
     29 C20         6.2192   -7.4559    1.7288 C.3       1 <0>        -0.1151
     30 C21         4.9483   -7.6177    2.5673 C.3       1 <0>        -0.1257
     31 C22         3.7254   -7.5130    1.6517 C.3       1 <0>        -0.1155
     32 C23         3.8198   -8.5798    0.5585 C.3       1 <0>         0.0388
     33 H2          1.0154    1.8157   -0.0286 H         1 <0>         0.0575
     34 H3         -0.5284    1.8042   -0.9145 H         1 <0>         0.0575
     35 H4         -0.5236    1.7949    0.8654 H         1 <0>         0.1018
     36 H5          1.1547    1.2546   -2.0323 H         1 <0>         0.1333
     37 H6          2.2578    0.1647   -3.9403 H         1 <0>         0.1309
     38 H7          1.3116   -3.6733   -2.2826 H         1 <0>         0.1361
     39 H8          0.2201   -2.5735   -0.3735 H         1 <0>         0.1370
     40 H9          5.1239   -5.5253   -7.6423 H         1 <0>         0.1344
     41 H10         6.3077   -7.6254   -7.1379 H         1 <0>         0.1426
     42 H11         6.3451   -8.5141   -4.8542 H         1 <0>         0.1566
     43 H12         5.2221   -6.8094   -1.9815 H         1 <0>         0.4277
     44 H13         5.0907  -10.1950   -1.1328 H         1 <0>         0.4011
     45 H14         6.2442   -9.5136    1.0910 H         1 <0>         0.0460
     46 H15         7.1380   -8.4029    0.0256 H         1 <0>         0.0829
     47 H16         7.0943   -7.5721    2.3682 H         1 <0>         0.0752
     48 H17         6.2303   -6.4662    1.2721 H         1 <0>         0.0768
     49 H18         4.9555   -8.5924    3.0553 H         1 <0>         0.0609
     50 H19         4.9070   -6.8320    3.3216 H         1 <0>         0.0710
     51 H20         2.8188   -7.6700    2.2361 H         1 <0>         0.0755
     52 H21         3.6973   -6.5242    1.1938 H         1 <0>         0.0801
     53 H22         2.9578   -8.4986   -0.1035 H         1 <0>         0.0846
     54 H23         3.8340   -9.5688    1.0165 H         1 <0>         0.0451
@<TRIPOS>BOND
     1    1    2 1
     2    1   33 1
     3    1   34 1
     4    1   35 1
     5    2    3 1
     6    3    8 ar
     7    3    4 ar
     8    4    5 ar
     9    4   36 1
    10    5    6 ar
    11    5   37 1
    12    6    7 ar
    13    6    9 1
    14    7    8 ar
    15    7   38 1
    16    8   39 1
    17    9   10 1
    18    9   13 2
    19   10   21 1
    20   10   11 2
    21   11   15 1
    22   11   12 1
    23   12   14 1
    24   12   13 1
    25   15   20 ar
    26   15   16 ar
    27   16   17 ar
    28   16   40 1
    29   17   18 ar
    30   17   41 1
    31   18   19 ar
    32   18   42 1
    33   19   20 ar
    34   19   23 1
    35   20   21 1
    36   21   22 2
    37   23   24 am
    38   23   43 1
    39   24   25 2
    40   24   26 am
    41   26   27 1
    42   26   44 1
    43   27   32 1
    44   27   28 1
    45   28   29 1
    46   28   45 1
    47   28   46 1
    48   29   30 1
    49   29   47 1
    50   29   48 1
    51   30   31 1
    52   30   49 1
    53   30   50 1
    54   31   32 1
    55   31   51 1
    56   31   52 1
    57   32   53 1
    58   32   54 1
@<TRIPOS>MOLECULE
CHEMBL122264
   45    48     0     0     0
SMALL
USER_CHARGES

@<TRIPOS>ATOM
      1 C1         -0.0144    1.3816    0.0453 C.ar      1 <0>        -0.1367
      2 C2          0.1479    0.2276    0.7897 C.ar      1 <0>        -0.1005
      3 C3          1.3519   -0.4485    0.7648 C.ar      1 <0>        -0.1166
      4 C4          2.4004    0.0319   -0.0093 C.ar      1 <0>         0.1656
      5 C5          2.2340    1.1913   -0.7559 C.ar      1 <0>        -0.1473
      6 C6          1.0274    1.8625   -0.7265 C.ar      1 <0>        -0.0979
      7 N1          3.6206   -0.6498   -0.0365 N.pl3     1 <0>        -0.6325
      8 C7          3.6445   -2.0325    0.0604 C.ar      1 <0>         0.6195
      9 N2          4.8131   -2.6468    0.1495 N.ar      1 <0>        -0.5870
     10 C8          4.8743   -3.9704    0.2443 C.ar      1 <0>         0.3421
     11 C9          3.6802   -4.7124    0.2489 C.ar      1 <0>        -0.1081
     12 C10         2.4647   -4.0180    0.1520 C.ar      1 <0>         0.4722
     13 N3          2.4943   -2.6946    0.0662 N.ar      1 <0>        -0.6039
     14 O1          1.2855   -4.6847    0.1514 O.3       1 <0>        -0.2754
     15 C11         0.0961   -3.8992    0.0492 C.3       1 <0>         0.0692
     16 C12        -1.1259   -4.8197    0.0647 C.3       1 <0>        -0.0864
     17 C13        -1.1152   -5.7026   -1.1849 C.3       1 <0>        -0.1148
     18 C14        -2.3373   -6.6231   -1.1694 C.3       1 <0>        -0.1197
     19 C15        -3.6124   -5.7777   -1.1531 C.3       1 <0>        -0.1220
     20 C16        -3.6230   -4.8948    0.0965 C.3       1 <0>        -0.1178
     21 C17        -2.4010   -3.9743    0.0810 C.3       1 <0>        -0.1104
     22 N4          4.0235   -6.0201    0.3537 N.2       1 <0>        -0.4438
     23 C18         5.3188   -6.1245    0.4122 C.2       1 <0>         0.2502
     24 N5          5.8897   -4.8871    0.3484 N.pl3     1 <0>        -0.5806
     25 H1          6.8395   -4.6913    0.3723 H         1 <0>         0.4331
     26 H2         -0.9584    1.9059    0.0631 H         1 <0>         0.1225
     27 H3         -0.6677   -0.1452    1.3917 H         1 <0>         0.1237
     28 H4          1.4781   -1.3495    1.3467 H         1 <0>         0.1314
     29 H5          3.0474    1.5677   -1.3585 H         1 <0>         0.1248
     30 H6          0.8974    2.7641   -1.3067 H         1 <0>         0.1259
     31 H7          4.4506   -0.1553   -0.1233 H         1 <0>         0.4259
     32 H8          0.0424   -3.2099    0.8918 H         1 <0>         0.0716
     33 H9          0.1132   -3.3336   -0.8824 H         1 <0>         0.0727
     34 H10        -1.0957   -5.4488    0.9543 H         1 <0>         0.0823
     35 H11        -1.1455   -5.0735   -2.0745 H         1 <0>         0.0611
     36 H12        -0.2068   -6.3048   -1.1965 H         1 <0>         0.0699
     37 H13        -2.3297   -7.2520   -2.0596 H         1 <0>         0.0625
     38 H14        -2.3070   -7.2522   -0.2798 H         1 <0>         0.0627
     39 H15        -3.6426   -5.1486   -2.0427 H         1 <0>         0.0615
     40 H16        -4.4830   -6.4335   -1.1420 H         1 <0>         0.0617
     41 H17        -4.5315   -4.2926    0.1081 H         1 <0>         0.0646
     42 H18        -3.5928   -5.5239    0.9861 H         1 <0>         0.0632
     43 H19        -2.4086   -3.3454    0.9712 H         1 <0>         0.0656
     44 H20        -2.4313   -3.3452   -0.8086 H         1 <0>         0.0665
     45 H21         5.8622   -7.0539    0.4982 H         1 <0>         0.2295
@<TRIPOS>BOND
     1    1    6 ar
     2    1    2 ar
     3    1   26 1
     4    2    3 ar
     5    2   27 1
     6    3    4 ar
     7    3   28 1
     8    4    5 ar
     9    4    7 1
    10    5    6 ar
    11    5   29 1
    12    6   30 1
    13    7    8 1
    14    7   31 1
    15    8   13 ar
    16    8    9 ar
    17    9   10 ar
    18   10   24 1
    19   10   11 ar
    20   11   12 ar
    21   11   22 1
    22   12   13 ar
    23   12   14 1
    24   14   15 1
    25   15   16 1
    26   15   32 1
    27   15   33 1
    28   16   21 1
    29   16   17 1
    30   16   34 1
    31   17   18 1
    32   17   35 1
    33   17   36 1
    34   18   19 1
    35   18   37 1
    36   18   38 1
    37   19   20 1
    38   19   39 1
    39   19   40 1
    40   20   21 1
    41   20   41 1
    42   20   42 1
    43   21   43 1
    44   21   44 1
    45   22   23 2
    46   23   24 1
    47   23   45 1
    48   24   25 1
@<TRIPOS>MOLECULE
CHEMBL322970
   35    37     0     0     0
SMALL
USER_CHARGES

@<TRIPOS>ATOM
      1 C1         -0.6297    1.0732    0.2401 C.ar      1 <0>        -0.0643
      2 C2          0.4428    1.9449    0.3147 C.ar      1 <0>        -0.1043
      3 C3          1.7387    1.4606    0.2936 C.ar      1 <0>        -0.0525
      4 C4          1.9699    0.1039    0.1974 C.ar      1 <0>        -0.0314
      5 C5          0.8927   -0.7809    0.1218 C.ar      1 <0>         0.0333
      6 C6         -0.4128   -0.2854    0.1441 C.ar      1 <0>        -0.0890
      7 C7          1.1329   -2.2362    0.0180 C.2       1 <0>        -0.1314
      8 C8          1.0020   -3.0114   -1.1048 C.2       1 <0>         0.1526
      9 C9          1.3530   -4.3938   -0.6991 C.2       1 <0>         0.5523
     10 O1          1.3554   -5.3678   -1.4239 O.2       1 <0>        -0.4342
     11 N1          1.6686   -4.3851    0.6078 N.am      1 <0>        -0.6765
     12 C10         1.5668   -3.1388    1.1007 C.2       1 <0>         0.5856
     13 O2          1.7920   -2.8106    2.2487 O.2       1 <0>        -0.4491
     14 N2          0.6200   -2.5904   -2.3597 N.pl3     1 <0>        -0.6474
     15 C11        -0.4977   -3.1573   -2.9764 C.ar      1 <0>         0.1937
     16 C12        -1.3137   -4.0319   -2.2686 C.ar      1 <0>        -0.1450
     17 C13        -2.4185   -4.5915   -2.8786 C.ar      1 <0>        -0.0866
     18 C14        -2.7149   -4.2814   -4.1979 C.ar      1 <0>         0.0834
     19 C15        -1.9009   -3.4079   -4.9065 C.ar      1 <0>        -0.0220
     20 C16        -0.7978   -2.8428   -4.2962 C.ar      1 <0>        -0.1463
     21 Cl1        -2.2726   -3.0212   -6.5575 Cl        1 <0>        -0.0462
     22 O3         -3.8032   -4.8337   -4.7977 O.3       1 <0>        -0.4834
     23 N3          3.3571   -0.4124    0.1740 N.pl3     1 <0>         0.0359
     24 O4          4.2889    0.3551    0.2392 O.2       1 <0>        -0.1413
     25 O5          3.5581   -1.6016    0.0897 O.3       1 <0>        -0.1635
     26 H1         -1.6388    1.4575    0.2615 H         1 <0>         0.1511
     27 H2          0.2674    3.0079    0.3894 H         1 <0>         0.1535
     28 H3          2.5711    2.1462    0.3522 H         1 <0>         0.1602
     29 H4         -1.2505   -0.9644    0.0859 H         1 <0>         0.1508
     30 H5          1.9348   -5.1647    1.1199 H         1 <0>         0.4361
     31 H6          1.1273   -1.9002   -2.8149 H         1 <0>         0.4229
     32 H7         -1.0832   -4.2740   -1.2417 H         1 <0>         0.1255
     33 H8         -3.0522   -5.2714   -2.3285 H         1 <0>         0.1446
     34 H9         -0.1669   -2.1598   -4.8457 H         1 <0>         0.1422
     35 H10        -4.6125   -4.3134   -4.7002 H         1 <0>         0.3911
@<TRIPOS>BOND
     1    1    6 ar
     2    1    2 ar
     3    1   26 1
     4    2    3 ar
     5    2   27 1
     6    3    4 ar
     7    3   28 1
     8    4    5 ar
     9    4   23 1
    10    5    6 ar
    11    5    7 1
    12    6   29 1
    13    7   12 1
    14    7    8 2
    15    8    9 1
    16    8   14 1
    17    9   10 2
    18    9   11 am
    19   11   12 am
    20   11   30 1
    21   12   13 2
    22   14   15 1
    23   14   31 1
    24   15   20 ar
    25   15   16 ar
    26   16   17 ar
    27   16   32 1
    28   17   18 ar
    29   17   33 1
    30   18   19 ar
    31   18   22 1
    32   19   20 ar
    33   19   21 1
    34   20   34 1
    35   22   35 1
    36   23   24 2
    37   23   25 1
@<TRIPOS>MOLECULE
CHEMBL191865
   50    53     0     0     0
SMALL
USER_CHARGES

@<TRIPOS>ATOM
      1 C1          0.0753    1.2882    0.8165 C.3       1 <0>        -0.1462
      2 C2          0.0022   -0.0043    0.0009 C.3       1 <0>        -0.0634
      3 C3         -1.4117   -0.5259    0.0119 C.ar      1 <0>        -0.0681
      4 C4         -2.0194   -0.8465    1.2119 C.ar      1 <0>        -0.0749
      5 C5         -3.3151   -1.3248    1.2254 C.ar      1 <0>        -0.1085
      6 C6         -4.0076   -1.4830    0.0321 C.ar      1 <0>         0.1375
      7 C7         -3.3946   -1.1596   -1.1713 C.ar      1 <0>        -0.1087
      8 C8         -2.1004   -0.6773   -1.1776 C.ar      1 <0>        -0.0995
      9 N1         -5.3202   -1.9677    0.0423 N.am      1 <0>        -0.5663
     10 C9         -5.5174   -3.4079   -0.0643 C.3       1 <0>         0.1134
     11 C10        -6.9128   -3.7949    0.4271 C.3       1 <0>        -0.1366
     12 C11        -7.9451   -2.9042   -0.2748 C.3       1 <0>        -0.1253
     13 C12        -7.7621   -1.4679    0.2218 C.3       1 <0>        -0.1328
     14 C13        -6.3121   -1.0834    0.1543 C.2       1 <0>         0.5180
     15 O1         -6.0282    0.0949    0.1997 O.2       1 <0>        -0.5395
     16 C14         0.9218   -1.0331    0.6065 C.2       1 <0>         0.5275
     17 O2          0.4733   -2.0863    1.0076 O.2       1 <0>        -0.4987
     18 N2          2.2427   -0.7830    0.7025 N.am      1 <0>        -0.6358
     19 C15         3.0980   -1.7399    1.2657 C.2       1 <0>         0.3036
     20 C16         2.7166   -2.9966    1.7623 C.2       1 <0>        -0.2590
     21 C17         3.8283   -3.6176    2.2177 C.2       1 <0>         0.1304
     22 N3          4.8757   -2.7898    2.0193 N.pl3     1 <0>        -0.4673
     23 H1          5.7995   -2.9742    2.2504 H         1 <0>         0.4391
     24 N4          4.3961   -1.6202    1.4159 N.2       1 <0>        -0.3185
     25 C18         3.8871   -4.9901    2.8373 C.3       1 <0>        -0.0984
     26 C19         4.9222   -5.2238    3.9396 C.3       1 <0>        -0.1702
     27 C20         5.1272   -5.8404    2.5544 C.3       1 <0>        -0.1700
     28 H2          1.0979    1.6654    0.8085 H         1 <0>         0.0664
     29 H3         -0.5899    2.0323    0.3785 H         1 <0>         0.0778
     30 H4         -0.2300    1.0875    1.8434 H         1 <0>         0.0667
     31 H5          0.3074    0.1963   -1.0260 H         1 <0>         0.1129
     32 H6         -1.4803   -0.7233    2.1395 H         1 <0>         0.1241
     33 H7         -3.7889   -1.5757    2.1629 H         1 <0>         0.1224
     34 H8         -3.9305   -1.2819   -2.1009 H         1 <0>         0.1233
     35 H9         -1.6245   -0.4218   -2.1128 H         1 <0>         0.1274
     36 H10        -5.4052   -3.7108   -1.1053 H         1 <0>         0.0693
     37 H11        -4.7680   -3.9198    0.5395 H         1 <0>         0.0792
     38 H12        -7.1082   -4.8401    0.1872 H         1 <0>         0.0888
     39 H13        -6.9750   -3.6469    1.5052 H         1 <0>         0.0744
     40 H14        -7.7899   -2.9423   -1.3530 H         1 <0>         0.0722
     41 H15        -8.9508   -3.2498   -0.0358 H         1 <0>         0.0801
     42 H16        -8.3477   -0.7920   -0.4014 H         1 <0>         0.1029
     43 H17        -8.1049   -1.3952    1.2539 H         1 <0>         0.1014
     44 H18         2.6014    0.0592    0.3817 H         1 <0>         0.4163
     45 H19         1.7135   -3.3964    1.7777 H         1 <0>         0.1729
     46 H20         2.9317   -5.5073    2.9258 H         1 <0>         0.1341
     47 H21         5.5606   -4.3849    4.2165 H         1 <0>         0.0948
     48 H22         4.6478   -5.8949    4.7535 H         1 <0>         0.1080
     49 H23         4.9877   -6.9170    2.4571 H         1 <0>         0.1079
     50 H24         5.9005   -5.4071    1.9201 H         1 <0>         0.0949
@<TRIPOS>BOND
     1    1    2 1
     2    1   28 1
     3    1   29 1
     4    1   30 1
     5    2    3 1
     6    2   16 1
     7    2   31 1
     8    3    8 ar
     9    3    4 ar
    10    4    5 ar
    11    4   32 1
    12    5    6 ar
    13    5   33 1
    14    6    7 ar
    15    6    9 1
    16    7    8 ar
    17    7   34 1
    18    8   35 1
    19    9   14 am
    20    9   10 1
    21   10   11 1
    22   10   36 1
    23   10   37 1
    24   11   12 1
    25   11   38 1
    26   11   39 1
    27   12   13 1
    28   12   40 1
    29   12   41 1
    30   13   14 1
    31   13   42 1
    32   13   43 1
    33   14   15 2
    34   16   17 2
    35   16   18 am
    36   18   19 1
    37   18   44 1
    38   19   24 2
    39   19   20 1
    40   20   21 2
    41   20   45 1
    42   21   22 1
    43   21   25 1
    44   22   23 1
    45   22   24 1
    46   25   27 1
    47   25   26 1
    48   25   46 1
    49   26   27 1
    50   26   47 1
    51   26   48 1
    52   27   49 1
    53   27   50 1
@<TRIPOS>MOLECULE
CHEMBL191865
   50    53     0     0     0
SMALL
USER_CHARGES

@<TRIPOS>ATOM
      1 C1          0.0753    1.2882    0.8165 C.3       1 <0>        -0.1463
      2 C2          0.0022   -0.0043    0.0009 C.3       1 <0>        -0.0615
      3 C3         -1.4117   -0.5259    0.0119 C.ar      1 <0>        -0.0709
      4 C4         -2.0194   -0.8465    1.2119 C.ar      1 <0>        -0.0751
      5 C5         -3.3151   -1.3248    1.2254 C.ar      1 <0>        -0.1080
      6 C6         -4.0076   -1.4830    0.0321 C.ar      1 <0>         0.1394
      7 C7         -3.3946   -1.1596   -1.1713 C.ar      1 <0>        -0.1084
      8 C8         -2.1004   -0.6773   -1.1776 C.ar      1 <0>        -0.0988
      9 N1         -5.3202   -1.9677    0.0423 N.am      1 <0>        -0.5666
     10 C9         -5.5174   -3.4079   -0.0643 C.3       1 <0>         0.1132
     11 C10        -6.9128   -3.7949    0.4271 C.3       1 <0>        -0.1366
     12 C11        -7.9451   -2.9042   -0.2748 C.3       1 <0>        -0.1253
     13 C12        -7.7621   -1.4679    0.2218 C.3       1 <0>        -0.1328
     14 C13        -6.3121   -1.0834    0.1543 C.2       1 <0>         0.5183
     15 O1         -6.0282    0.0949    0.1997 O.2       1 <0>        -0.5399
     16 C14         0.9218   -1.0331    0.6065 C.2       1 <0>         0.5252
     17 O2          0.4733   -2.0863    1.0076 O.2       1 <0>        -0.4882
     18 N2          2.2427   -0.7830    0.7025 N.am      1 <0>        -0.6513
     19 C15         3.0939   -1.7352    1.2629 C.2       1 <0>         0.3070
     20 C16         2.7288   -2.9524    1.7506 C.2       1 <0>        -0.2697
     21 C17         3.8819   -3.5899    2.2167 C.2       1 <0>         0.1217
     22 N3          4.9008   -2.7929    2.0197 N.2       1 <0>        -0.2790
     23 H1          4.9732   -0.8572    1.1540 H         1 <0>         0.4366
     24 N4          4.4328   -1.6192    1.4153 N.pl3     1 <0>        -0.4909
     25 C18         3.9415   -4.9606    2.8402 C.3       1 <0>        -0.0850
     26 C19         2.6273   -5.5710    3.3315 C.3       1 <0>        -0.1631
     27 C20         3.6612   -5.0671    4.3405 C.3       1 <0>        -0.1633
     28 H2          1.0979    1.6654    0.8085 H         1 <0>         0.0642
     29 H3         -0.5899    2.0323    0.3785 H         1 <0>         0.0791
     30 H4         -0.2300    1.0875    1.8434 H         1 <0>         0.0676
     31 H5          0.3074    0.1963   -1.0260 H         1 <0>         0.1130
     32 H6         -1.4803   -0.7233    2.1395 H         1 <0>         0.1238
     33 H7         -3.7889   -1.5757    2.1629 H         1 <0>         0.1231
     34 H8         -3.9305   -1.2819   -2.1009 H         1 <0>         0.1239
     35 H9         -1.6245   -0.4218   -2.1128 H         1 <0>         0.1273
     36 H10        -5.4052   -3.7108   -1.1053 H         1 <0>         0.0695
     37 H11        -4.7680   -3.9198    0.5395 H         1 <0>         0.0795
     38 H12        -7.1082   -4.8401    0.1872 H         1 <0>         0.0892
     39 H13        -6.9750   -3.6469    1.5052 H         1 <0>         0.0745
     40 H14        -7.7899   -2.9423   -1.3530 H         1 <0>         0.0722
     41 H15        -8.9508   -3.2498   -0.0358 H         1 <0>         0.0803
     42 H16        -8.3477   -0.7920   -0.4014 H         1 <0>         0.1031
     43 H17        -8.1049   -1.3952    1.2539 H         1 <0>         0.1017
     44 H18         2.6014    0.0592    0.3817 H         1 <0>         0.4124
     45 H19         1.7265   -3.3539    1.7736 H         1 <0>         0.1739
     46 H20         4.6842   -5.6374    2.4176 H         1 <0>         0.1215
     47 H21         1.7197   -4.9811    3.2038 H         1 <0>         0.1013
     48 H22         2.5052   -6.6495    3.2321 H         1 <0>         0.1020
     49 H23         4.2192   -5.8142    4.9049 H         1 <0>         0.1013
     50 H24         3.4337   -4.1457    4.8766 H         1 <0>         0.0950
@<TRIPOS>BOND
     1    1    2 1
     2    1   28 1
     3    1   29 1
     4    1   30 1
     5    2    3 1
     6    2   16 1
     7    2   31 1
     8    3    8 ar
     9    3    4 ar
    10    4    5 ar
    11    4   32 1
    12    5    6 ar
    13    5   33 1
    14    6    7 ar
    15    6    9 1
    16    7    8 ar
    17    7   34 1
    18    8   35 1
    19    9   14 am
    20    9   10 1
    21   10   11 1
    22   10   36 1
    23   10   37 1
    24   11   12 1
    25   11   38 1
    26   11   39 1
    27   12   13 1
    28   12   40 1
    29   12   41 1
    30   13   14 1
    31   13   42 1
    32   13   43 1
    33   14   15 2
    34   16   17 2
    35   16   18 am
    36   18   44 1
    37   18   19 1
    38   19   20 2
    39   19   24 1
    40   20   21 1
    41   20   45 1
    42   21   22 2
    43   21   25 1
    44   22   24 1
    45   23   24 1
    46   25   27 1
    47   25   26 1
    48   25   46 1
    49   26   27 1
    50   26   47 1
    51   26   48 1
    52   27   49 1
    53   27   50 1
@<TRIPOS>MOLECULE
CHEMBL191865
   50    53     0     0     0
SMALL
USER_CHARGES

@<TRIPOS>ATOM
      1 C1          0.6399    1.3023   -0.4742 C.3       1 <0>        -0.1451
      2 C2          0.0026   -0.0048    0.0014 C.3       1 <0>        -0.0633
      3 C3          0.7313   -0.5038    1.2225 C.ar      1 <0>        -0.0688
      4 C4          0.7786    0.2751    2.3641 C.ar      1 <0>        -0.0746
      5 C5          1.4456   -0.1794    3.4848 C.ar      1 <0>        -0.1089
      6 C6          2.0689   -1.4202    3.4645 C.ar      1 <0>         0.1379
      7 C7          2.0192   -2.2002    2.3166 C.ar      1 <0>        -0.1090
      8 C8          1.3465   -1.7421    1.2008 C.ar      1 <0>        -0.0992
      9 N1          2.7459   -1.8834    4.5981 N.am      1 <0>        -0.5675
     10 C9          4.1638   -1.5694    4.7227 C.3       1 <0>         0.1143
     11 C10         4.6197   -1.7198    6.1746 C.3       1 <0>        -0.1367
     12 C11         4.1697   -3.0919    6.6909 C.3       1 <0>        -0.1251
     13 C12         2.6416   -3.0981    6.7794 C.3       1 <0>        -0.1328
     14 C13         2.0522   -2.5797    5.4993 C.2       1 <0>         0.5166
     15 O1          0.8837   -2.8106    5.2707 O.2       1 <0>        -0.5355
     16 C14        -1.4447    0.2376    0.3443 C.2       1 <0>         0.5247
     17 O2         -1.8451    0.0260    1.4695 O.2       1 <0>        -0.4946
     18 N2         -2.2942    0.6896   -0.5994 N.am      1 <0>        -0.6360
     19 C15        -3.6403    0.9151   -0.2805 C.2       1 <0>         0.3038
     20 C16        -4.2342    0.7186    0.9765 C.2       1 <0>        -0.2589
     21 C17        -5.5420    1.0471    0.8735 C.2       1 <0>         0.1308
     22 N3         -5.7719    1.4371   -0.3980 N.pl3     1 <0>        -0.4676
     23 H1         -6.6234    1.7291   -0.7594 H         1 <0>         0.4389
     24 N4         -4.5645    1.3521   -1.1031 N.2       1 <0>        -0.3190
     25 C18        -6.5617    0.9877    1.9815 C.3       1 <0>        -0.0986
     26 C19        -7.9981    0.6230    1.6009 C.3       1 <0>        -0.1701
     27 C20        -7.6528    2.0603    1.9957 C.3       1 <0>        -0.1699
     28 H2          1.6867    1.1270   -0.7222 H         1 <0>         0.0768
     29 H3          0.1128    1.6632   -1.3574 H         1 <0>         0.0664
     30 H4          0.5742    2.0479    0.3182 H         1 <0>         0.0666
     31 H5          0.0683   -0.7504   -0.7910 H         1 <0>         0.1127
     32 H6          0.2936    1.2400    2.3792 H         1 <0>         0.1241
     33 H7          1.4827    0.4297    4.3759 H         1 <0>         0.1223
     34 H8          2.5033   -3.1655    2.2976 H         1 <0>         0.1233
     35 H9          1.3040   -2.3500    0.3091 H         1 <0>         0.1273
     36 H10         4.7396   -2.2470    4.0923 H         1 <0>         0.0690
     37 H11         4.3358   -0.5440    4.3955 H         1 <0>         0.0782
     38 H12         5.7061   -1.6480    6.2261 H         1 <0>         0.0886
     39 H13         4.1697   -0.9348    6.7824 H         1 <0>         0.0743
     40 H14         4.5006   -3.8695    6.0025 H         1 <0>         0.0721
     41 H15         4.5952   -3.2699    7.6785 H         1 <0>         0.0800
     42 H16         2.2932   -4.1159    6.9552 H         1 <0>         0.1029
     43 H17         2.3241   -2.4606    7.6046 H         1 <0>         0.1013
     44 H18        -1.9741    0.8588   -1.4993 H         1 <0>         0.4158
     45 H19        -3.7352    0.3674    1.8676 H         1 <0>         0.1731
     46 H20        -6.1906    0.6346    2.9436 H         1 <0>         0.1344
     47 H21        -8.2054    0.4260    0.5491 H         1 <0>         0.0947
     48 H22        -8.5721    0.0297    2.3126 H         1 <0>         0.1080
     49 H23        -7.9996    2.4125    2.9671 H         1 <0>         0.1079
     50 H24        -7.6330    2.8089    1.2036 H         1 <0>         0.0948
@<TRIPOS>BOND
     1    1    2 1
     2    1   28 1
     3    1   29 1
     4    1   30 1
     5    2    3 1
     6    2   16 1
     7    2   31 1
     8    3    8 ar
     9    3    4 ar
    10    4    5 ar
    11    4   32 1
    12    5    6 ar
    13    5   33 1
    14    6    7 ar
    15    6    9 1
    16    7    8 ar
    17    7   34 1
    18    8   35 1
    19    9   14 am
    20    9   10 1
    21   10   11 1
    22   10   36 1
    23   10   37 1
    24   11   12 1
    25   11   38 1
    26   11   39 1
    27   12   13 1
    28   12   40 1
    29   12   41 1
    30   13   14 1
    31   13   42 1
    32   13   43 1
    33   14   15 2
    34   16   17 2
    35   16   18 am
    36   18   19 1
    37   18   44 1
    38   19   24 2
    39   19   20 1
    40   20   21 2
    41   20   45 1
    42   21   22 1
    43   21   25 1
    44   22   23 1
    45   22   24 1
    46   25   27 1
    47   25   26 1
    48   25   46 1
    49   26   27 1
    50   26   47 1
    51   26   48 1
    52   27   49 1
    53   27   50 1
@<TRIPOS>MOLECULE
CHEMBL191865
   50    53     0     0     0
SMALL
USER_CHARGES

@<TRIPOS>ATOM
      1 C1          0.6399    1.3023   -0.4742 C.3       1 <0>        -0.1452
      2 C2          0.0026   -0.0048    0.0014 C.3       1 <0>        -0.0613
      3 C3          0.7313   -0.5038    1.2225 C.ar      1 <0>        -0.0717
      4 C4          0.7786    0.2751    2.3641 C.ar      1 <0>        -0.0746
      5 C5          1.4456   -0.1794    3.4848 C.ar      1 <0>        -0.1083
      6 C6          2.0689   -1.4202    3.4645 C.ar      1 <0>         0.1398
      7 C7          2.0192   -2.2002    2.3166 C.ar      1 <0>        -0.1088
      8 C8          1.3465   -1.7421    1.2008 C.ar      1 <0>        -0.0987
      9 N1          2.7459   -1.8834    4.5981 N.am      1 <0>        -0.5680
     10 C9          4.1638   -1.5694    4.7227 C.3       1 <0>         0.1144
     11 C10         4.6197   -1.7198    6.1746 C.3       1 <0>        -0.1368
     12 C11         4.1697   -3.0919    6.6909 C.3       1 <0>        -0.1251
     13 C12         2.6416   -3.0981    6.7794 C.3       1 <0>        -0.1328
     14 C13         2.0522   -2.5797    5.4993 C.2       1 <0>         0.5168
     15 O1          0.8837   -2.8106    5.2707 O.2       1 <0>        -0.5352
     16 C14        -1.4447    0.2376    0.3443 C.2       1 <0>         0.5224
     17 O2         -1.8451    0.0260    1.4695 O.2       1 <0>        -0.4842
     18 N2         -2.2942    0.6896   -0.5994 N.am      1 <0>        -0.6515
     19 C15        -3.6337    0.9140   -0.2821 C.2       1 <0>         0.3065
     20 C16        -4.2157    0.7201    0.9330 C.2       1 <0>        -0.2693
     21 C17        -5.5656    1.0640    0.8206 C.2       1 <0>         0.1223
     22 N3         -5.7909    1.4494   -0.4094 N.2       1 <0>        -0.2795
     23 H1         -4.4645    1.5980   -2.0587 H         1 <0>         0.4362
     24 N4         -4.5891    1.3693   -1.1244 N.pl3     1 <0>        -0.4913
     25 C18        -6.5872    1.0013    1.9267 C.3       1 <0>        -0.0854
     26 C19        -6.2359    0.1770    3.1669 C.3       1 <0>        -0.1632
     27 C20        -7.2787   -0.3409    2.1743 C.3       1 <0>        -0.1632
     28 H2          1.6867    1.1270   -0.7222 H         1 <0>         0.0781
     29 H3          0.1128    1.6632   -1.3574 H         1 <0>         0.0642
     30 H4          0.5742    2.0479    0.3182 H         1 <0>         0.0675
     31 H5          0.0683   -0.7504   -0.7910 H         1 <0>         0.1127
     32 H6          0.2936    1.2400    2.3792 H         1 <0>         0.1240
     33 H7          1.4827    0.4297    4.3759 H         1 <0>         0.1231
     34 H8          2.5033   -3.1655    2.2976 H         1 <0>         0.1239
     35 H9          1.3040   -2.3500    0.3091 H         1 <0>         0.1271
     36 H10         4.7396   -2.2470    4.0923 H         1 <0>         0.0690
     37 H11         4.3358   -0.5440    4.3955 H         1 <0>         0.0781
     38 H12         5.7061   -1.6480    6.2261 H         1 <0>         0.0887
     39 H13         4.1697   -0.9348    6.7824 H         1 <0>         0.0745
     40 H14         4.5006   -3.8695    6.0025 H         1 <0>         0.0721
     41 H15         4.5952   -3.2699    7.6785 H         1 <0>         0.0802
     42 H16         2.2932   -4.1159    6.9552 H         1 <0>         0.1031
     43 H17         2.3241   -2.4606    7.6046 H         1 <0>         0.1017
     44 H18        -1.9741    0.8588   -1.4993 H         1 <0>         0.4119
     45 H19        -3.7222    0.3636    1.8250 H         1 <0>         0.1740
     46 H20        -7.1770    1.9060    2.0738 H         1 <0>         0.1214
     47 H21        -5.2658   -0.3198    3.1827 H         1 <0>         0.1019
     48 H22        -6.5944    0.5396    4.1303 H         1 <0>         0.1022
     49 H23        -8.3233   -0.3191    2.4848 H         1 <0>         0.1012
     50 H24        -6.9947   -1.1785    1.5372 H         1 <0>         0.0949
@<TRIPOS>BOND
     1    1    2 1
     2    1   28 1
     3    1   29 1
     4    1   30 1
     5    2    3 1
     6    2   16 1
     7    2   31 1
     8    3    8 ar
     9    3    4 ar
    10    4    5 ar
    11    4   32 1
    12    5    6 ar
    13    5   33 1
    14    6    7 ar
    15    6    9 1
    16    7    8 ar
    17    7   34 1
    18    8   35 1
    19    9   14 am
    20    9   10 1
    21   10   11 1
    22   10   36 1
    23   10   37 1
    24   11   12 1
    25   11   38 1
    26   11   39 1
    27   12   13 1
    28   12   40 1
    29   12   41 1
    30   13   14 1
    31   13   42 1
    32   13   43 1
    33   14   15 2
    34   16   17 2
    35   16   18 am
    36   18   44 1
    37   18   19 1
    38   19   20 2
    39   19   24 1
    40   20   21 1
    41   20   45 1
    42   21   22 2
    43   21   25 1
    44   22   24 1
    45   23   24 1
    46   25   27 1
    47   25   26 1
    48   25   46 1
    49   26   27 1
    50   26   47 1
    51   26   48 1
    52   27   49 1
    53   27   50 1
@<TRIPOS>MOLECULE
CHEMBL363077
   52    56     0     0     0
SMALL
USER_CHARGES

@<TRIPOS>ATOM
      1 C1         -0.0349    1.4171   -0.0299 C.3       1 <0>         0.0237
      2 O1         -0.0190   -0.0118   -0.0396 O.3       1 <0>        -0.3115
      3 C2         -1.2218   -0.6418   -0.0205 C.ar      1 <0>         0.1530
      4 C3         -2.3941    0.1039    0.0013 C.ar      1 <0>        -0.2103
      5 C4         -3.6164   -0.5311    0.0207 C.ar      1 <0>        -0.0509
      6 C5         -3.6762   -1.9274    0.0185 C.ar      1 <0>        -0.1027
      7 C6         -2.4946   -2.6735   -0.0035 C.ar      1 <0>        -0.0250
      8 C7         -1.2767   -2.0302   -0.0285 C.ar      1 <0>        -0.1498
      9 C8         -4.9830   -2.6119    0.0397 C.2       1 <0>         0.2448
     10 C9         -5.3336   -3.6923    0.8377 C.2       1 <0>        -0.3329
     11 C10        -6.7228   -4.0219    0.5085 C.2       1 <0>         0.1273
     12 N1         -7.1159   -3.1776   -0.4129 N.2       1 <0>        -0.2333
     13 N2         -6.0724   -2.2975   -0.7161 N.pl3     1 <0>        -0.4651
     14 H1         -6.1165   -1.5773   -1.3644 H         1 <0>         0.4487
     15 C11        -7.1199   -5.1769    1.3515 C.ar      1 <0>         0.0441
     16 C12        -8.3115   -5.8848    1.4441 C.ar      1 <0>        -0.1066
     17 C13        -8.4270   -6.9443    2.3286 C.ar      1 <0>        -0.0594
     18 C14        -7.3628   -7.3097    3.1273 C.ar      1 <0>        -0.1298
     19 C15        -6.1596   -6.6158    3.0515 C.ar      1 <0>         0.2407
     20 C16        -6.0301   -5.5422    2.1609 C.ar      1 <0>        -0.1942
     21 C17        -4.8965   -4.6412    1.8706 C.2       1 <0>         0.4940
     22 O2         -3.7982   -4.6782    2.3928 O.2       1 <0>        -0.4492
     23 N3         -5.0878   -6.9864    3.8588 N.am      1 <0>        -0.6754
     24 C18        -4.9992   -8.2482    4.3239 C.2       1 <0>         0.7165
     25 O3         -5.7972   -9.0889    3.9568 O.2       1 <0>        -0.5428
     26 N4         -4.0261   -8.5782    5.1960 N.am      1 <0>        -0.5174
     27 N5         -3.1065   -7.6096    5.6191 N.am      1 <0>        -0.5289
     28 C19        -2.1334   -7.9396    6.4912 C.2       1 <0>         0.5736
     29 O4         -2.0535   -9.0776    6.9106 O.2       1 <0>        -0.5188
     30 C20        -1.1631   -6.9174    6.9376 C.ar      1 <0>        -0.1871
     31 C21        -0.1439   -7.2488    7.8387 C.ar      1 <0>        -0.0082
     32 C22         0.7387   -6.2556    8.2246 C.ar      1 <0>        -0.1756
     33 C23         0.5875   -4.9791    7.7128 C.ar      1 <0>         0.1306
     34 N6         -0.3829   -4.6957    6.8652 N.ar      1 <0>        -0.4812
     35 C24        -1.2439   -5.6077    6.4635 C.ar      1 <0>         0.1390
     36 H2          0.9885    1.7919   -0.0472 H         1 <0>         0.1045
     37 H3         -0.5698    1.7804   -0.9073 H         1 <0>         0.0586
     38 H4         -0.5354    1.7688    0.8723 H         1 <0>         0.0593
     39 H5         -2.3469    1.1828    0.0034 H         1 <0>         0.1368
     40 H6         -4.5270    0.0493    0.0380 H         1 <0>         0.1291
     41 H7         -2.5363   -3.7527   -0.0049 H         1 <0>         0.1377
     42 H8         -0.3632   -2.6059   -0.0503 H         1 <0>         0.1409
     43 H9         -9.1514   -5.6076    0.8243 H         1 <0>         0.1395
     44 H10        -9.3575   -7.4887    2.3940 H         1 <0>         0.1445
     45 H11        -7.4644   -8.1371    3.8139 H         1 <0>         0.1625
     46 H12        -4.4047   -6.3365    4.0866 H         1 <0>         0.4113
     47 H13        -3.9623   -9.4864    5.5308 H         1 <0>         0.4507
     48 H14        -3.1703   -6.7014    5.2843 H         1 <0>         0.4212
     49 H15        -0.0494   -8.2537    8.2230 H         1 <0>         0.1520
     50 H16         1.5370   -6.4744    8.9184 H         1 <0>         0.1487
     51 H17         1.2750   -4.2019    8.0123 H         1 <0>         0.1664
     52 H18        -2.0222   -5.3383    5.7649 H         1 <0>         0.1562
@<TRIPOS>BOND
     1    1    2 1
     2    1   36 1
     3    1   37 1
     4    1   38 1
     5    2    3 1
     6    3    8 ar
     7    3    4 ar
     8    4    5 ar
     9    4   39 1
    10    5    6 ar
    11    5   40 1
    12    6    7 ar
    13    6    9 1
    14    7    8 ar
    15    7   41 1
    16    8   42 1
    17    9   13 1
    18    9   10 2
    19   10   21 1
    20   10   11 1
    21   11   12 2
    22   11   15 1
    23   12   13 1
    24   13   14 1
    25   15   20 ar
    26   15   16 ar
    27   16   17 ar
    28   16   43 1
    29   17   18 ar
    30   17   44 1
    31   18   19 ar
    32   18   45 1
    33   19   20 ar
    34   19   23 1
    35   20   21 1
    36   21   22 2
    37   23   24 am
    38   23   46 1
    39   24   25 2
    40   24   26 am
    41   26   27 1
    42   26   47 1
    43   27   28 am
    44   27   48 1
    45   28   29 2
    46   28   30 1
    47   30   35 ar
    48   30   31 ar
    49   31   32 ar
    50   31   49 1
    51   32   33 ar
    52   32   50 1
    53   33   34 ar
    54   33   51 1
    55   34   35 ar
    56   35   52 1
@<TRIPOS>MOLECULE
CHEMBL363077
   52    56     0     0     0
SMALL
USER_CHARGES

@<TRIPOS>ATOM
      1 C1          0.0113    1.4489    0.0485 C.3       1 <0>         0.0249
      2 O1          0.0208    0.0200    0.0343 O.3       1 <0>        -0.3142
      3 C2          0.6461   -0.6029    1.0670 C.ar      1 <0>         0.1447
      4 C3          1.2333    0.1488    2.0762 C.ar      1 <0>        -0.2136
      5 C4          1.8683   -0.4803    3.1259 C.ar      1 <0>        -0.0422
      6 C5          1.9204   -1.8731    3.1735 C.ar      1 <0>        -0.0743
      7 C6          1.3297   -2.6251    2.1584 C.ar      1 <0>        -0.0345
      8 C7          0.6917   -1.9899    1.1142 C.ar      1 <0>        -0.1520
      9 C8          2.6026   -2.5527    4.3002 C.2       1 <0>         0.2028
     10 C9          2.2129   -3.7772    4.8935 C.2       1 <0>        -0.3134
     11 C10         3.1204   -4.0510    5.9082 C.2       1 <0>         0.1583
     12 N1          4.0166   -3.0408    5.9284 N.pl3     1 <0>        -0.4235
     13 N2          3.6820   -2.1271    4.9229 N.2       1 <0>        -0.2701
     14 H1          4.7687   -2.9635    6.5360 H         1 <0>         0.4475
     15 C11         2.7442   -5.3304    6.5563 C.ar      1 <0>         0.0136
     16 C12         3.3093   -6.0421    7.6040 C.ar      1 <0>        -0.1083
     17 C13         2.7425   -7.2400    8.0205 C.ar      1 <0>        -0.0616
     18 C14         1.6164   -7.7346    7.4015 C.ar      1 <0>        -0.1241
     19 C15         1.0313   -7.0337    6.3443 C.ar      1 <0>         0.2462
     20 C16         1.5931   -5.8304    5.9193 C.ar      1 <0>        -0.1951
     21 C17         1.2220   -4.8717    4.8541 C.2       1 <0>         0.4873
     22 O2          0.2799   -4.9667    4.0924 O.2       1 <0>        -0.4362
     23 N3         -0.1057   -7.5338    5.7186 N.am      1 <0>        -0.6753
     24 C18        -0.9289   -8.3685    6.3835 C.2       1 <0>         0.7169
     25 O3         -0.7351   -8.6034    7.5605 O.2       1 <0>        -0.5428
     26 N4         -1.9669   -8.9426    5.7437 N.am      1 <0>        -0.5163
     27 N5         -2.1902   -8.6718    4.3874 N.am      1 <0>        -0.5295
     28 C19        -3.2282   -9.2460    3.7476 C.2       1 <0>         0.5741
     29 O4         -3.9706   -9.9987    4.3473 O.2       1 <0>        -0.5183
     30 C20        -3.4638   -8.9602    2.3164 C.ar      1 <0>        -0.1879
     31 C21        -4.5421   -9.5457    1.6416 C.ar      1 <0>        -0.0081
     32 C22        -4.7188   -9.2453    0.3027 C.ar      1 <0>        -0.1755
     33 C23        -3.8333   -8.3843   -0.3208 C.ar      1 <0>         0.1315
     34 N6         -2.8257   -7.8476    0.3404 N.ar      1 <0>        -0.4804
     35 C24        -2.6190   -8.0981    1.6167 C.ar      1 <0>         0.1392
     36 H2          1.0365    1.8192    0.0364 H         1 <0>         0.0577
     37 H3         -0.5185    1.8175   -0.8299 H         1 <0>         0.1022
     38 H4         -0.4912    1.8000    0.9497 H         1 <0>         0.0575
     39 H5          1.1928    1.2274    2.0386 H         1 <0>         0.1336
     40 H6          2.3251    0.1049    3.9104 H         1 <0>         0.1309
     41 H7          1.3687   -3.7039    2.1921 H         1 <0>         0.1362
     42 H8          0.2302   -2.5718    0.3300 H         1 <0>         0.1383
     43 H9          4.1927   -5.6641    8.0972 H         1 <0>         0.1368
     44 H10         3.1892   -7.7884    8.8367 H         1 <0>         0.1455
     45 H11         1.1846   -8.6670    7.7340 H         1 <0>         0.1641
     46 H12        -0.3062   -7.2819    4.8036 H         1 <0>         0.4120
     47 H13        -2.5594   -9.5433    6.2223 H         1 <0>         0.4512
     48 H14        -1.5977   -8.0711    3.9088 H         1 <0>         0.4211
     49 H15        -5.2181  -10.2149    2.1531 H         1 <0>         0.1519
     50 H16        -5.5393   -9.6786   -0.2501 H         1 <0>         0.1488
     51 H17        -3.9689   -8.1480   -1.3658 H         1 <0>         0.1669
     52 H18        -1.7857   -7.6358    2.1249 H         1 <0>         0.1561
@<TRIPOS>BOND
     1    1    2 1
     2    1   36 1
     3    1   37 1
     4    1   38 1
     5    2    3 1
     6    3    8 ar
     7    3    4 ar
     8    4    5 ar
     9    4   39 1
    10    5    6 ar
    11    5   40 1
    12    6    7 ar
    13    6    9 1
    14    7    8 ar
    15    7   41 1
    16    8   42 1
    17    9   10 1
    18    9   13 2
    19   10   21 1
    20   10   11 2
    21   11   15 1
    22   11   12 1
    23   12   14 1
    24   12   13 1
    25   15   20 ar
    26   15   16 ar
    27   16   17 ar
    28   16   43 1
    29   17   18 ar
    30   17   44 1
    31   18   19 ar
    32   18   45 1
    33   19   20 ar
    34   19   23 1
    35   20   21 1
    36   21   22 2
    37   23   24 am
    38   23   46 1
    39   24   25 2
    40   24   26 am
    41   26   27 1
    42   26   47 1
    43   27   28 am
    44   27   48 1
    45   28   29 2
    46   28   30 1
    47   30   35 ar
    48   30   31 ar
    49   31   32 ar
    50   31   49 1
    51   32   33 ar
    52   32   50 1
    53   33   34 ar
    54   33   51 1
    55   34   35 ar
    56   35   52 1
@<TRIPOS>MOLECULE
CHEMBL361196
   33    36     0     0     0
SMALL
USER_CHARGES

@<TRIPOS>ATOM
      1 C1         -0.0167    1.3789    0.0096 C.ar      1 <0>        -0.1663
      2 C2          1.1807    2.0727    0.0019 C.ar      1 <0>        -0.0505
      3 C3          2.3726    1.3389   -0.0134 C.ar      1 <0>        -0.0817
      4 C4          2.3057   -0.0556   -0.0203 C.ar      1 <0>         0.1321
      5 N1          1.1411   -0.6699   -0.0124 N.ar      1 <0>        -0.4763
      6 C5          0.0021   -0.0041    0.0020 C.ar      1 <0>         0.1118
      7 C6          3.6797    2.0285   -0.0227 C.2       1 <0>         0.0829
      8 C7          4.8864    1.4117   -0.0430 C.2       1 <0>        -0.1547
      9 C8          5.8839    2.4790   -0.0455 C.ar      1 <0>        -0.2679
     10 C9          7.2850    2.5351   -0.0621 C.ar      1 <0>         0.4679
     11 N2          7.8677    3.7300   -0.0584 N.ar      1 <0>        -0.5225
     12 C10         7.1474    4.8365   -0.0396 C.ar      1 <0>         0.3639
     13 N3          5.8312    4.8297   -0.0236 N.ar      1 <0>        -0.5259
     14 C11         5.1567    3.6839   -0.0257 C.ar      1 <0>         0.3279
     15 O1          3.8510    3.3664   -0.0181 O.3       1 <0>        -0.1697
     16 N4          8.0439    1.3731   -0.0814 N.am      1 <0>        -0.6467
     17 C12         9.3895    1.4472   -0.0972 C.2       1 <0>         0.5339
     18 O2          9.9373    2.5291   -0.0945 O.2       1 <0>        -0.4569
     19 C13        10.2135    0.1855   -0.1182 C.3       1 <0>        -0.2003
     20 C14        11.0293   -0.1463    1.1329 C.3       1 <0>        -0.1494
     21 C15        11.7359    0.3363   -0.1354 C.3       1 <0>        -0.1422
     22 H1         -0.9559    1.9117    0.0259 H         1 <0>         0.1454
     23 H2          1.1951    3.1526    0.0072 H         1 <0>         0.1444
     24 H3          3.2168   -0.6353   -0.0324 H         1 <0>         0.1635
     25 H4         -0.9310   -0.5479    0.0080 H         1 <0>         0.1645
     26 H5          5.0726    0.3480   -0.0543 H         1 <0>         0.1708
     27 H6          7.6598    5.7872   -0.0369 H         1 <0>         0.2180
     28 H7          7.6058    0.5077   -0.0836 H         1 <0>         0.4234
     29 H8          9.7838   -0.6473   -0.6748 H         1 <0>         0.1298
     30 H9         10.9701    0.5479    1.9712 H         1 <0>         0.1017
     31 H10        11.1364   -1.1977    1.3997 H         1 <0>         0.1094
     32 H11        12.3079   -0.3977   -0.7031 H         1 <0>         0.1083
     33 H12        12.1416    1.3480   -0.1316 H         1 <0>         0.1110
@<TRIPOS>BOND
     1    1    6 ar
     2    1    2 ar
     3    1   22 1
     4    2    3 ar
     5    2   23 1
     6    3    4 ar
     7    3    7 1
     8    4    5 ar
     9    4   24 1
    10    5    6 ar
    11    6   25 1
    12    7   15 1
    13    7    8 2
    14    8    9 1
    15    8   26 1
    16    9   14 ar
    17    9   10 ar
    18   10   11 ar
    19   10   16 1
    20   11   12 ar
    21   12   13 ar
    22   12   27 1
    23   13   14 ar
    24   14   15 1
    25   16   17 am
    26   16   28 1
    27   17   18 2
    28   17   19 1
    29   19   21 1
    30   19   20 1
    31   19   29 1
    32   20   21 1
    33   20   30 1
    34   20   31 1
    35   21   32 1
    36   21   33 1
@<TRIPOS>MOLECULE
CHEMBL126328
   44    46     0     0     0
SMALL
USER_CHARGES

@<TRIPOS>ATOM
      1 C1         -0.0184    1.5028    0.0103 C.3       1 <0>        -0.1658
      2 C2          0.0021   -0.0041    0.0020 C.2       1 <0>         0.5056
      3 O1          0.0203   -0.6161    1.0491 O.2       1 <0>        -0.4727
      4 N1          0.0001   -0.6716   -1.1688 N.am      1 <0>        -0.6200
      5 C3          0.0189   -2.0636   -1.1765 C.2       1 <0>         0.3382
      6 N2          0.0342   -2.9055   -0.1599 N.2       1 <0>        -0.4902
      7 C4          0.0512   -4.2115   -0.3506 C.2       1 <0>         0.0867
      8 C5          0.0532   -4.7063   -1.6201 C.2       1 <0>        -0.2265
      9 S1          0.0211   -3.1888   -2.5656 S.3       1 <0>         0.0219
     10 S2          0.0744   -6.3782   -2.1760 S.3       1 <0>         0.0404
     11 C6          0.0654   -6.2394   -3.9847 C.3       1 <0>        -0.0281
     12 C7          0.0822   -7.6174   -4.5943 C.2       1 <0>         0.1858
     13 N3         -0.9681   -8.3236   -4.9023 N.2       1 <0>        -0.4502
     14 C8         -0.5624   -9.4952   -5.4231 C.2       1 <0>        -0.0385
     15 C9          0.7809   -9.4952   -5.4294 C.2       1 <0>        -0.0187
     16 O2          1.1799   -8.3157   -4.9142 O.3       1 <0>        -0.1905
     17 C10         1.6738  -10.6039   -5.9241 C.3       1 <0>        -0.0352
     18 C11         1.9699  -10.3953   -7.4106 C.3       1 <0>        -0.0845
     19 C12         0.6740  -10.5309   -8.2126 C.3       1 <0>        -0.1193
     20 C13         0.9701  -10.3223   -9.6992 C.3       1 <0>        -0.1197
     21 C14         1.9748  -11.3750  -10.1717 C.3       1 <0>        -0.1213
     22 C15         3.2706  -11.2395   -9.3696 C.3       1 <0>        -0.1202
     23 C16         2.9746  -11.4480   -7.8831 C.3       1 <0>        -0.1139
     24 H1          1.0042    1.8801    0.0026 H         1 <0>         0.1033
     25 H2         -0.5455    1.8639   -0.8728 H         1 <0>         0.0870
     26 H3         -0.5286    1.8543    0.9071 H         1 <0>         0.1044
     27 H4         -0.0145   -0.1822   -2.0061 H         1 <0>         0.4286
     28 H5          0.0639   -4.8839    0.4945 H         1 <0>         0.1760
     29 H6         -0.8333   -5.7117   -4.3041 H         1 <0>         0.1321
     30 H7          0.9465   -5.6869   -4.3111 H         1 <0>         0.1198
     31 H8         -1.2014  -10.2925   -5.7730 H         1 <0>         0.1880
     32 H9          2.6082  -10.5957   -5.3629 H         1 <0>         0.0882
     33 H10         1.1743  -11.5625   -5.7841 H         1 <0>         0.1022
     34 H11         2.3882   -9.4002   -7.5616 H         1 <0>         0.0738
     35 H12         0.2556  -11.5260   -8.0616 H         1 <0>         0.0662
     36 H13        -0.0418   -9.7809   -7.8760 H         1 <0>         0.0635
     37 H14         0.0469  -10.4189  -10.2706 H         1 <0>         0.0628
     38 H15         1.3884   -9.3272   -9.8502 H         1 <0>         0.0600
     39 H16         1.5564  -12.3702  -10.0206 H         1 <0>         0.0626
     40 H17         2.1857  -11.2265  -11.2307 H         1 <0>         0.0614
     41 H18         3.9864  -11.9895   -9.7062 H         1 <0>         0.0639
     42 H19         3.6890  -10.2444   -9.5206 H         1 <0>         0.0614
     43 H20         3.8978  -11.3515   -7.3117 H         1 <0>         0.0649
     44 H21         2.5562  -12.4432   -7.7321 H         1 <0>         0.0666
@<TRIPOS>BOND
     1    1    2 1
     2    1   24 1
     3    1   25 1
     4    1   26 1
     5    2    3 2
     6    2    4 am
     7    4    5 1
     8    4   27 1
     9    5    9 1
    10    5    6 2
    11    6    7 1
    12    7    8 2
    13    7   28 1
    14    8    9 1
    15    8   10 1
    16   10   11 1
    17   11   12 1
    18   11   29 1
    19   11   30 1
    20   12   16 1
    21   12   13 2
    22   13   14 1
    23   14   15 2
    24   14   31 1
    25   15   16 1
    26   15   17 1
    27   17   18 1
    28   17   32 1
    29   17   33 1
    30   18   23 1
    31   18   19 1
    32   18   34 1
    33   19   20 1
    34   19   35 1
    35   19   36 1
    36   20   21 1
    37   20   37 1
    38   20   38 1
    39   21   22 1
    40   21   39 1
    41   21   40 1
    42   22   23 1
    43   22   41 1
    44   22   42 1
    45   23   43 1
    46   23   44 1
@<TRIPOS>MOLECULE
CHEMBL279590
   43    46     0     0     0
SMALL
USER_CHARGES

@<TRIPOS>ATOM
      1 C1          5.1091    1.4408   -3.4337 C.ar      1 <0>        -0.0839
      2 C2          4.8365    2.1210   -2.2599 C.ar      1 <0>        -0.1333
      3 C3          4.3772    1.4371   -1.1535 C.ar      1 <0>        -0.0590
      4 C4          4.1871    0.0554   -1.2201 C.ar      1 <0>        -0.1599
      5 C5          4.4638   -0.6246   -2.4078 C.ar      1 <0>        -0.0573
      6 C6          4.9230    0.0715   -3.5065 C.ar      1 <0>        -0.1325
      7 C7          3.6956   -0.6842   -0.0382 C.2       1 <0>         0.4649
      8 O1          3.3610   -0.0788    0.9621 O.2       1 <0>        -0.4338
      9 C8          3.6113   -2.1534   -0.0721 C.ar      1 <0>        -0.2735
     10 C9          2.3647   -2.7928   -0.1334 C.ar      1 <0>         0.2276
     11 N1          2.2694   -4.1004   -0.1638 N.ar      1 <0>        -0.5031
     12 C10         3.3426   -4.8879   -0.1389 C.ar      1 <0>         0.3387
     13 N2          3.5064   -6.2445   -0.1605 N.pl3     1 <0>        -0.4819
     14 N3          4.8772   -6.5230   -0.1137 N.2       1 <0>        -0.2317
     15 C11         5.5503   -5.4102   -0.0651 C.2       1 <0>         0.1022
     16 C12         4.6340   -4.3322   -0.0781 C.ar      1 <0>        -0.2505
     17 C13         4.7785   -2.9344   -0.0493 C.ar      1 <0>         0.2678
     18 O2          6.0025   -2.3597    0.0040 O.3       1 <0>        -0.3226
     19 C14         6.5465   -2.1110    1.3018 C.3       1 <0>         0.1012
     20 C15         6.1273   -0.7167    1.7719 C.3       1 <0>        -0.1606
     21 C16         6.7098   -0.4504    3.1614 C.3       1 <0>        -0.1136
     22 C17         8.2364   -0.5298    3.0982 C.3       1 <0>        -0.1248
     23 C18         8.6556   -1.9242    2.6281 C.3       1 <0>        -0.1165
     24 C19         8.0731   -2.1904    1.2386 C.3       1 <0>        -0.1148
     25 H1          5.4646    1.9817   -4.2982 H         1 <0>         0.1280
     26 H2          4.9839    3.1897   -2.2098 H         1 <0>         0.1301
     27 H3          4.1654    1.9691   -0.2378 H         1 <0>         0.1336
     28 H4          4.3193   -1.6933   -2.4658 H         1 <0>         0.1249
     29 H5          5.1374   -0.4532   -4.4258 H         1 <0>         0.1288
     30 H6          1.4647   -2.1962   -0.1555 H         1 <0>         0.1776
     31 H7          6.6260   -5.3241   -0.0218 H         1 <0>         0.2011
     32 H8          6.1725   -2.8582    2.0018 H         1 <0>         0.0683
     33 H9          6.5013    0.0304    1.0719 H         1 <0>         0.0736
     34 H10         5.0397   -0.6601    1.8169 H         1 <0>         0.0829
     35 H11         6.4111    0.5429    3.4963 H         1 <0>         0.0699
     36 H12         6.3357   -1.1976    3.8614 H         1 <0>         0.0625
     37 H13         8.6104    0.2173    2.3982 H         1 <0>         0.0654
     38 H14         8.6514   -0.3402    4.0882 H         1 <0>         0.0665
     39 H15         9.7432   -1.9807    2.5831 H         1 <0>         0.0732
     40 H16         8.2815   -2.6713    3.3281 H         1 <0>         0.0647
     41 H17         8.3717   -3.1838    0.9037 H         1 <0>         0.0731
     42 H18         8.4471   -1.4433    0.5386 H         1 <0>         0.0766
     43 H19         2.7944   -6.9019   -0.2012 H         1 <0>         0.4503
@<TRIPOS>BOND
     1    1    6 ar
     2    1    2 ar
     3    1   25 1
     4    2    3 ar
     5    2   26 1
     6    3    4 ar
     7    3   27 1
     8    4    5 ar
     9    4    7 1
    10    5    6 ar
    11    5   28 1
    12    6   29 1
    13    7    8 2
    14    7    9 1
    15    9   17 ar
    16    9   10 ar
    17   10   11 ar
    18   10   30 1
    19   11   12 ar
    20   12   16 ar
    21   12   13 1
    22   13   43 1
    23   13   14 1
    24   14   15 2
    25   15   31 1
    26   15   16 1
    27   16   17 ar
    28   17   18 1
    29   18   19 1
    30   19   24 1
    31   19   20 1
    32   19   32 1
    33   20   21 1
    34   20   33 1
    35   20   34 1
    36   21   22 1
    37   21   35 1
    38   21   36 1
    39   22   23 1
    40   22   37 1
    41   22   38 1
    42   23   24 1
    43   23   39 1
    44   23   40 1
    45   24   41 1
    46   24   42 1
@<TRIPOS>MOLECULE
CHEMBL279590
   43    46     0     0     0
SMALL
USER_CHARGES

@<TRIPOS>ATOM
      1 C1          5.1266    1.4398   -3.4264 C.ar      1 <0>        -0.0852
      2 C2          4.8487    2.1202   -2.2540 C.ar      1 <0>        -0.1338
      3 C3          4.3837    1.4365   -1.1498 C.ar      1 <0>        -0.0599
      4 C4          4.1935    0.0550   -1.2171 C.ar      1 <0>        -0.1585
      5 C5          4.4759   -0.6253   -2.4032 C.ar      1 <0>        -0.0571
      6 C6          4.9403    0.0706   -3.4999 C.ar      1 <0>        -0.1332
      7 C7          3.6958   -0.6844   -0.0375 C.2       1 <0>         0.4645
      8 O1          3.3559   -0.0785    0.9614 O.2       1 <0>        -0.4363
      9 C8          3.6116   -2.1508   -0.0714 C.ar      1 <0>        -0.2825
     10 C9          2.3553   -2.7824   -0.1333 C.ar      1 <0>         0.2405
     11 N1          2.2251   -4.0804   -0.1650 N.ar      1 <0>        -0.4717
     12 C10         3.2919   -4.9013   -0.1408 C.ar      1 <0>         0.2916
     13 N2          3.4407   -6.2113   -0.1615 N.2       1 <0>        -0.2827
     14 N3          4.8045   -6.5188   -0.1150 N.pl3     1 <0>        -0.4061
     15 C11         5.5257   -5.3927   -0.0643 C.2       1 <0>         0.1335
     16 C12         4.6449   -4.3271   -0.0767 C.ar      1 <0>        -0.2878
     17 C13         4.7822   -2.9206   -0.0479 C.ar      1 <0>         0.2773
     18 O2          6.0005   -2.3383    0.0053 O.3       1 <0>        -0.3261
     19 C14         6.5425   -2.0852    1.3031 C.3       1 <0>         0.1013
     20 C15         6.1137   -0.6935    1.7724 C.3       1 <0>        -0.1615
     21 C16         6.6939   -0.4226    3.1619 C.3       1 <0>        -0.1137
     22 C17         8.2211   -0.4915    3.0992 C.3       1 <0>        -0.1248
     23 C18         8.6499   -1.8832    2.6299 C.3       1 <0>        -0.1164
     24 C19         8.0696   -2.1542    1.2404 C.3       1 <0>        -0.1143
     25 H1          5.4863    1.9805   -4.2894 H         1 <0>         0.1273
     26 H2          4.9966    3.1888   -2.2031 H         1 <0>         0.1294
     27 H3          4.1675    1.9687   -0.2352 H         1 <0>         0.1333
     28 H4          4.3313   -1.6940   -2.4618 H         1 <0>         0.1255
     29 H5          5.1591   -0.4544   -4.4181 H         1 <0>         0.1281
     30 H6          1.4660   -2.1700   -0.1550 H         1 <0>         0.1741
     31 H7          6.6029   -5.3278   -0.0212 H         1 <0>         0.1978
     32 H8          6.1734   -2.8345    2.0034 H         1 <0>         0.0671
     33 H9          6.4827    0.0558    1.0721 H         1 <0>         0.0735
     34 H10         5.0257   -0.6444    1.8171 H         1 <0>         0.0854
     35 H11         6.3884    0.5689    3.4962 H         1 <0>         0.0703
     36 H12         6.3248   -1.1719    3.8622 H         1 <0>         0.0624
     37 H13         8.5902    0.2578    2.3989 H         1 <0>         0.0655
     38 H14         8.6344   -0.2985    4.0891 H         1 <0>         0.0665
     39 H15         9.7379   -1.9324    2.5853 H         1 <0>         0.0726
     40 H16         8.2808   -2.6325    3.3302 H         1 <0>         0.0640
     41 H17         8.3751   -3.1457    0.9061 H         1 <0>         0.0702
     42 H18         8.4387   -1.4049    0.5401 H         1 <0>         0.0767
     43 H19         5.1732   -7.4160   -0.1186 H         1 <0>         0.4533
@<TRIPOS>BOND
     1    1    6 ar
     2    1    2 ar
     3    1   25 1
     4    2    3 ar
     5    2   26 1
     6    3    4 ar
     7    3   27 1
     8    4    5 ar
     9    4    7 1
    10    5    6 ar
    11    5   28 1
    12    6   29 1
    13    7    8 2
    14    7    9 1
    15    9   17 ar
    16    9   10 ar
    17   10   11 ar
    18   10   30 1
    19   11   12 ar
    20   12   16 ar
    21   12   13 2
    22   13   14 1
    23   14   15 1
    24   14   43 1
    25   15   16 2
    26   15   31 1
    27   16   17 ar
    28   17   18 1
    29   18   19 1
    30   19   24 1
    31   19   20 1
    32   19   32 1
    33   20   21 1
    34   20   33 1
    35   20   34 1
    36   21   22 1
    37   21   35 1
    38   21   36 1
    39   22   23 1
    40   22   37 1
    41   22   38 1
    42   23   24 1
    43   23   39 1
    44   23   40 1
    45   24   41 1
    46   24   42 1
@<TRIPOS>MOLECULE
CHEMBL178190
   31    34     0     0     0
SMALL
USER_CHARGES

@<TRIPOS>ATOM
      1 C1         -0.0167    1.3799    0.0096 C.ar      1 <0>        -0.0486
      2 C2          1.1941    2.0584    0.0017 C.ar      1 <0>        -0.1779
      3 C3          2.3727    1.3380   -0.0134 C.ar      1 <0>         0.1292
      4 N1          2.3591    0.0193   -0.0204 N.ar      1 <0>        -0.5023
      5 C4          1.2255   -0.6635   -0.0132 C.ar      1 <0>         0.3692
      6 C5          0.0021   -0.0041    0.0020 C.ar      1 <0>        -0.1596
      7 N2          1.2588   -2.0595   -0.0215 N.pl3     1 <0>        -0.3268
      8 C6          2.2886   -2.8254   -0.5036 C.ar      1 <0>         0.2094
      9 C7          1.9256   -4.1657   -0.3241 C.ar      1 <0>        -0.1727
     10 C8          2.7926   -5.1922   -0.7285 C.ar      1 <0>         0.0094
     11 C9          3.9922   -4.8986   -1.2972 C.ar      1 <0>        -0.1580
     12 C10         4.3812   -3.5689   -1.4889 C.ar      1 <0>         0.1693
     13 C11         3.5327   -2.5222   -1.0932 C.ar      1 <0>        -0.1820
     14 C12         4.1912   -1.3132   -1.4117 C.2       1 <0>         0.0980
     15 N3          5.3413   -1.5956   -1.9537 N.2       1 <0>        -0.2678
     16 N4          5.5010   -2.9847   -2.0218 N.pl3     1 <0>        -0.4930
     17 H1          6.2704   -3.4524   -2.3825 H         1 <0>         0.4447
     18 C13         0.5976   -4.1534    0.3033 C.2       1 <0>         0.0822
     19 N5          0.2494   -2.8956    0.4661 N.2       1 <0>        -0.2151
     20 C14        -0.1970   -5.3347    0.6857 C.2       1 <0>         0.6090
     21 O1          0.2397   -6.4520    0.4861 O.2       1 <0>        -0.5162
     22 N6         -1.4076   -5.1765    1.2568 N.am      1 <0>        -0.8348
     23 H2         -0.9521    1.9194    0.0259 H         1 <0>         0.1474
     24 H3          1.2146    3.1382    0.0070 H         1 <0>         0.1462
     25 H4          3.3174    1.8615   -0.0200 H         1 <0>         0.1721
     26 H5         -0.9214   -0.5640    0.0082 H         1 <0>         0.1474
     27 H6          2.5050   -6.2234   -0.5865 H         1 <0>         0.1512
     28 H7          4.6501   -5.6986   -1.6031 H         1 <0>         0.1389
     29 H8          3.8050   -0.3202   -1.2352 H         1 <0>         0.2085
     30 H9         -1.7559   -4.2853    1.4160 H         1 <0>         0.4096
     31 H10        -1.9305   -5.9537    1.5084 H         1 <0>         0.4130
@<TRIPOS>BOND
     1    1    6 ar
     2    1    2 ar
     3    1   23 1
     4    2    3 ar
     5    2   24 1
     6    3    4 ar
     7    3   25 1
     8    4    5 ar
     9    5    6 ar
    10    5    7 1
    11    6   26 1
    12    7   19 1
    13    7    8 1
    14    8   13 ar
    15    8    9 ar
    16    9   10 ar
    17    9   18 1
    18   10   11 ar
    19   10   27 1
    20   11   12 ar
    21   11   28 1
    22   12   16 1
    23   12   13 ar
    24   13   14 1
    25   14   15 2
    26   14   29 1
    27   15   16 1
    28   16   17 1
    29   18   19 2
    30   18   20 1
    31   20   21 2
    32   20   22 am
    33   22   30 1
    34   22   31 1
@<TRIPOS>MOLECULE
CHEMBL178190
   31    34     0     0     0
SMALL
USER_CHARGES

@<TRIPOS>ATOM
      1 C1         -0.0167    1.3799    0.0096 C.ar      1 <0>        -0.0484
      2 C2          1.1941    2.0584    0.0017 C.ar      1 <0>        -0.1773
      3 C3          2.3727    1.3380   -0.0134 C.ar      1 <0>         0.1260
      4 N1          2.3590    0.0193   -0.0204 N.ar      1 <0>        -0.5062
      5 C4          1.2254   -0.6635   -0.0132 C.ar      1 <0>         0.3688
      6 C5          0.0021   -0.0041    0.0020 C.ar      1 <0>        -0.1569
      7 N2          1.2587   -2.0598   -0.0215 N.pl3     1 <0>        -0.3176
      8 C6          2.2858   -2.8241   -0.5023 C.ar      1 <0>         0.2099
      9 C7          1.9303   -4.1616   -0.3268 C.ar      1 <0>        -0.1648
     10 C8          2.7881   -5.2080   -0.7260 C.ar      1 <0>        -0.0180
     11 C9          3.9899   -4.9806   -1.2944 C.ar      1 <0>        -0.1091
     12 C10         4.4494   -3.6139   -1.5187 C.ar      1 <0>         0.1354
     13 C11         3.5740   -2.5036   -1.1130 C.ar      1 <0>        -0.2027
     14 C12         4.2398   -1.3418   -1.4344 C.2       1 <0>         0.1227
     15 N3          5.4152   -1.6796   -1.9883 N.pl3     1 <0>        -0.4462
     16 N4          5.5357   -3.0734   -2.0340 N.2       1 <0>        -0.2917
     17 H1          6.0821   -1.0516   -2.3072 H         1 <0>         0.4462
     18 C13         0.6015   -4.1531    0.3008 C.2       1 <0>         0.0782
     19 N5          0.2497   -2.8960    0.4660 N.2       1 <0>        -0.2299
     20 C14        -0.1908   -5.3372    0.6808 C.2       1 <0>         0.6089
     21 O1          0.2484   -6.4530    0.4789 O.2       1 <0>        -0.5150
     22 N6         -1.4017   -5.1828    1.2520 N.am      1 <0>        -0.8360
     23 H2         -0.9521    1.9195    0.0259 H         1 <0>         0.1481
     24 H3          1.2146    3.1382    0.0070 H         1 <0>         0.1462
     25 H4          3.3174    1.8614   -0.0200 H         1 <0>         0.1703
     26 H5         -0.9214   -0.5640    0.0082 H         1 <0>         0.1487
     27 H6          2.4710   -6.2286   -0.5704 H         1 <0>         0.1468
     28 H7          4.6143   -5.8127   -1.5842 H         1 <0>         0.1415
     29 H8          3.8800   -0.3368   -1.2704 H         1 <0>         0.2008
     30 H9         -1.7521   -4.2927    1.4130 H         1 <0>         0.4090
     31 H10        -1.9229   -5.9618    1.5020 H         1 <0>         0.4124
@<TRIPOS>BOND
     1    1    6 ar
     2    1    2 ar
     3    1   23 1
     4    2    3 ar
     5    2   24 1
     6    3    4 ar
     7    3   25 1
     8    4    5 ar
     9    5    6 ar
    10    5    7 1
    11    6   26 1
    12    7   19 1
    13    7    8 1
    14    8   13 ar
    15    8    9 ar
    16    9   10 ar
    17    9   18 1
    18   10   11 ar
    19   10   27 1
    20   11   12 ar
    21   11   28 1
    22   12   13 ar
    23   12   16 2
    24   13   14 2
    25   14   29 1
    26   14   15 1
    27   15   17 1
    28   15   16 1
    29   18   19 2
    30   18   20 1
    31   20   21 2
    32   20   22 am
    33   22   30 1
    34   22   31 1
@<TRIPOS>MOLECULE
CHEMBL358281
   52    56     0     0     0
SMALL
USER_CHARGES

@<TRIPOS>ATOM
      1 C1          0.0247    1.4182    0.0138 C.3       1 <0>         0.0238
      2 O1          0.0474   -0.0106    0.0039 O.3       1 <0>        -0.3119
      3 C2          0.6420   -0.6104   -1.0594 C.ar      1 <0>         0.1516
      4 C3          1.1976    0.1643   -2.0703 C.ar      1 <0>        -0.2104
      5 C4          1.8013   -0.4399   -3.1510 C.ar      1 <0>        -0.0515
      6 C5          1.8549   -1.8343   -3.2295 C.ar      1 <0>        -0.1011
      7 C6          1.2951   -2.6096   -2.2102 C.ar      1 <0>        -0.0253
      8 C7          0.6980   -1.9969   -1.1306 C.ar      1 <0>        -0.1500
      9 C8          2.5000   -2.4860   -4.3852 C.2       1 <0>         0.2413
     10 C9          2.0009   -3.5601   -5.1091 C.2       1 <0>        -0.3316
     11 C10         2.9852   -3.8537   -6.1540 C.2       1 <0>         0.1282
     12 N1          3.9665   -2.9966   -6.0171 N.2       1 <0>        -0.2351
     13 N2          3.6940   -2.1418   -4.9445 N.pl3     1 <0>        -0.4659
     14 H1          4.2665   -1.4187   -4.6441 H         1 <0>         0.4481
     15 C11         2.4714   -5.0014   -6.9422 C.ar      1 <0>         0.0421
     16 C12         2.9973   -5.6793   -8.0347 C.ar      1 <0>        -0.1108
     17 C13         2.3055   -6.7388   -8.5978 C.ar      1 <0>        -0.0615
     18 C14         1.0879   -7.1338   -8.0825 C.ar      1 <0>        -0.1315
     19 C15         0.5415   -6.4695   -6.9893 C.ar      1 <0>         0.2477
     20 C16         1.2316   -5.3967   -6.4104 C.ar      1 <0>        -0.1979
     21 C17         0.9025   -4.5231   -5.2661 C.2       1 <0>         0.4926
     22 O2         -0.0979   -4.5894   -4.5767 O.2       1 <0>        -0.4473
     23 N3         -0.6875   -6.8697   -6.4721 N.am      1 <0>        -0.6768
     24 C18        -1.1148   -8.1351   -6.6526 C.2       1 <0>         0.7061
     25 O3         -0.3850   -8.9542   -7.1766 O.2       1 <0>        -0.5664
     26 N4         -2.3510   -8.4926   -6.2522 N.am      1 <0>        -0.7332
     27 C19        -2.8154   -9.8681   -6.4483 C.3       1 <0>         0.1795
     28 C20        -4.2195  -10.0046   -5.9183 C.ar      1 <0>        -0.1143
     29 C21        -4.4288  -10.3617   -4.5994 C.ar      1 <0>        -0.0983
     30 C22        -5.7167  -10.4870   -4.1132 C.ar      1 <0>        -0.1218
     31 C23        -6.7954  -10.2547   -4.9458 C.ar      1 <0>        -0.1092
     32 C24        -6.5862   -9.8967   -6.2645 C.ar      1 <0>        -0.1222
     33 C25        -5.2982   -9.7673   -6.7495 C.ar      1 <0>        -0.0986
     34 H2          1.0463    1.7979   -0.0032 H         1 <0>         0.0586
     35 H3         -0.5117    1.7792   -0.8638 H         1 <0>         0.0590
     36 H4         -0.4777    1.7674    0.9158 H         1 <0>         0.1043
     37 H5          1.1557    1.2418   -2.0088 H         1 <0>         0.1367
     38 H6          2.2323    0.1629   -3.9366 H         1 <0>         0.1291
     39 H7          1.3344   -3.6874   -2.2669 H         1 <0>         0.1379
     40 H8          0.2691   -2.5952   -0.3403 H         1 <0>         0.1409
     41 H9          3.9493   -5.3788   -8.4468 H         1 <0>         0.1375
     42 H10         2.7221   -7.2597   -9.4473 H         1 <0>         0.1422
     43 H11         0.5573   -7.9613   -8.5297 H         1 <0>         0.1621
     44 H12        -1.2363   -6.2378   -5.9819 H         1 <0>         0.4177
     45 H13        -2.9333   -7.8391   -5.8341 H         1 <0>         0.4019
     46 H14        -2.8036  -10.1074   -7.5117 H         1 <0>         0.0800
     47 H15        -2.1572  -10.5534   -5.9143 H         1 <0>         0.0796
     48 H16        -3.5860  -10.5432   -3.9488 H         1 <0>         0.1249
     49 H17        -5.8802  -10.7667   -3.0829 H         1 <0>         0.1252
     50 H18        -7.8017  -10.3532   -4.5661 H         1 <0>         0.1242
     51 H19        -7.4290   -9.7155   -6.9151 H         1 <0>         0.1251
     52 H20        -5.1347   -9.4839   -7.7788 H         1 <0>         0.1248
@<TRIPOS>BOND
     1    1    2 1
     2    1   34 1
     3    1   35 1
     4    1   36 1
     5    2    3 1
     6    3    8 ar
     7    3    4 ar
     8    4    5 ar
     9    4   37 1
    10    5    6 ar
    11    5   38 1
    12    6    7 ar
    13    6    9 1
    14    7    8 ar
    15    7   39 1
    16    8   40 1
    17    9   13 1
    18    9   10 2
    19   10   21 1
    20   10   11 1
    21   11   12 2
    22   11   15 1
    23   12   13 1
    24   13   14 1
    25   15   20 ar
    26   15   16 ar
    27   16   17 ar
    28   16   41 1
    29   17   18 ar
    30   17   42 1
    31   18   19 ar
    32   18   43 1
    33   19   20 ar
    34   19   23 1
    35   20   21 1
    36   21   22 2
    37   23   24 am
    38   23   44 1
    39   24   25 2
    40   24   26 am
    41   26   27 1
    42   26   45 1
    43   27   28 1
    44   27   46 1
    45   27   47 1
    46   28   33 ar
    47   28   29 ar
    48   29   30 ar
    49   29   48 1
    50   30   31 ar
    51   30   49 1
    52   31   32 ar
    53   31   50 1
    54   32   33 ar
    55   32   51 1
    56   33   52 1
@<TRIPOS>MOLECULE
CHEMBL358281
   52    56     0     0     0
SMALL
USER_CHARGES

@<TRIPOS>ATOM
      1 C1         -0.0005    1.4480   -0.0336 C.3       1 <0>         0.0250
      2 O1          0.0185    0.0192   -0.0300 O.3       1 <0>        -0.3147
      3 C2          0.6162   -0.5924   -1.0857 C.ar      1 <0>         0.1439
      4 C3          1.1777    0.1704   -2.1011 C.ar      1 <0>        -0.2134
      5 C4          1.7849   -0.4471   -3.1739 C.ar      1 <0>        -0.0423
      6 C5          1.8348   -1.8394   -3.2384 C.ar      1 <0>        -0.0728
      7 C6          1.2700   -2.6025   -2.2169 C.ar      1 <0>        -0.0348
      8 C7          0.6692   -1.9787   -1.1441 C.ar      1 <0>        -0.1526
      9 C8          2.4863   -2.5065   -4.3904 C.2       1 <0>         0.2010
     10 C9          3.2254   -3.7127   -4.3456 C.2       1 <0>        -0.3139
     11 C10         3.6577   -3.9797   -5.6380 C.2       1 <0>         0.1589
     12 N1          3.2022   -2.9830   -6.4274 N.pl3     1 <0>        -0.4247
     13 N2          2.4754   -2.0850   -5.6379 N.2       1 <0>        -0.2713
     14 H1          3.3508   -2.9047   -7.3827 H         1 <0>         0.4470
     15 C11         4.4388   -5.2399   -5.6321 C.ar      1 <0>         0.0120
     16 C12         5.0819   -5.9387   -6.6430 C.ar      1 <0>        -0.1125
     17 C13         5.7562   -7.1188   -6.3565 C.ar      1 <0>        -0.0640
     18 C14         5.7950   -7.6087   -5.0703 C.ar      1 <0>        -0.1254
     19 C15         5.1541   -6.9207   -4.0373 C.ar      1 <0>         0.2528
     20 C16         4.4746   -5.7352   -4.3153 C.ar      1 <0>        -0.1990
     21 C17         3.7136   -4.7928   -3.4644 C.2       1 <0>         0.4862
     22 O2          3.5264   -4.8893   -2.2675 O.2       1 <0>        -0.4349
     23 N3          5.1934   -7.4157   -2.7381 N.am      1 <0>        -0.6764
     24 C18         6.2020   -8.2234   -2.3549 C.2       1 <0>         0.7064
     25 O3          7.1301   -8.4373   -3.1105 O.2       1 <0>        -0.5662
     26 N4          6.1817   -8.7940   -1.1341 N.am      1 <0>        -0.7320
     27 C19         7.2780   -9.6719   -0.7175 C.3       1 <0>         0.1794
     28 C20         7.0154  -10.1759    0.6782 C.ar      1 <0>        -0.1151
     29 C21         7.4741   -9.4611    1.7689 C.ar      1 <0>        -0.0982
     30 C22         7.2332   -9.9234    3.0492 C.ar      1 <0>        -0.1215
     31 C23         6.5332  -11.1003    3.2388 C.ar      1 <0>        -0.1087
     32 C24         6.0737  -11.8146    2.1481 C.ar      1 <0>        -0.1220
     33 C25         6.3109  -11.3501    0.8679 C.ar      1 <0>        -0.0985
     34 H2          1.0221    1.8250   -0.0499 H         1 <0>         0.0575
     35 H3         -0.5324    1.8021   -0.9167 H         1 <0>         0.0576
     36 H4         -0.5057    1.8069    0.8631 H         1 <0>         0.1021
     37 H5          1.1383    1.2485   -2.0507 H         1 <0>         0.1337
     38 H6          2.2211    0.1466   -3.9636 H         1 <0>         0.1311
     39 H7          1.3066   -3.6808   -2.2642 H         1 <0>         0.1360
     40 H8          0.2354   -2.5691   -0.3505 H         1 <0>         0.1374
     41 H9          5.0580   -5.5643   -7.6558 H         1 <0>         0.1347
     42 H10         6.2540   -7.6570   -7.1495 H         1 <0>         0.1432
     43 H11         6.3221   -8.5275   -4.8596 H         1 <0>         0.1635
     44 H12         4.4949   -7.1796   -2.1078 H         1 <0>         0.4185
     45 H13         5.4412   -8.6233   -0.5312 H         1 <0>         0.4025
     46 H14         7.3467  -10.5173   -1.4022 H         1 <0>         0.0803
     47 H15         8.2150   -9.1152   -0.7325 H         1 <0>         0.0798
     48 H16         8.0209   -8.5417    1.6208 H         1 <0>         0.1248
     49 H17         7.5921   -9.3654    3.9013 H         1 <0>         0.1254
     50 H18         6.3456  -11.4618    4.2390 H         1 <0>         0.1245
     51 H19         5.5271  -12.7342    2.2962 H         1 <0>         0.1253
     52 H20         5.9487  -11.9062    0.0159 H         1 <0>         0.1248
@<TRIPOS>BOND
     1    1    2 1
     2    1   34 1
     3    1   35 1
     4    1   36 1
     5    2    3 1
     6    3    8 ar
     7    3    4 ar
     8    4    5 ar
     9    4   37 1
    10    5    6 ar
    11    5   38 1
    12    6    7 ar
    13    6    9 1
    14    7    8 ar
    15    7   39 1
    16    8   40 1
    17    9   10 1
    18    9   13 2
    19   10   21 1
    20   10   11 2
    21   11   15 1
    22   11   12 1
    23   12   14 1
    24   12   13 1
    25   15   20 ar
    26   15   16 ar
    27   16   17 ar
    28   16   41 1
    29   17   18 ar
    30   17   42 1
    31   18   19 ar
    32   18   43 1
    33   19   20 ar
    34   19   23 1
    35   20   21 1
    36   21   22 2
    37   23   24 am
    38   23   44 1
    39   24   25 2
    40   24   26 am
    41   26   27 1
    42   26   45 1
    43   27   28 1
    44   27   46 1
    45   27   47 1
    46   28   33 ar
    47   28   29 ar
    48   29   30 ar
    49   29   48 1
    50   30   31 ar
    51   30   49 1
    52   31   32 ar
    53   31   50 1
    54   32   33 ar
    55   32   51 1
    56   33   52 1
@<TRIPOS>MOLECULE
CHEMBL553906
   25    27     0     0     0
SMALL
USER_CHARGES

@<TRIPOS>ATOM
      1 C1         -0.0184    1.5028    0.0103 C.3       1 <0>        -0.0696
      2 C2          0.0021   -0.0041    0.0020 C.2       1 <0>         0.2417
      3 N1          0.0081   -0.7643   -1.0569 N.2       1 <0>        -0.2609
      4 N2          0.0271   -2.0042   -0.7099 N.2       1 <0>        -0.2228
      5 C3          0.0341   -2.0887    0.5860 C.2       1 <0>         0.1010
      6 N3          0.0237   -0.8209    1.1140 N.pl3     1 <0>        -0.3494
      7 N4          0.0346   -0.7253    2.4992 N.2       1 <0>        -0.2795
      8 C4          0.0562   -1.7962    3.2518 C.2       1 <0>         0.2086
      9 S1          0.0545   -3.1079    2.0395 S.3       1 <0>         0.1329
     10 C5          0.0710   -1.8947    4.7274 C.ar      1 <0>        -0.1013
     11 C6          0.0563   -0.7361    5.5057 C.ar      1 <0>        -0.0049
     12 C7          0.0696   -0.8308    6.8802 C.ar      1 <0>        -0.2025
     13 C8          0.0982   -2.0793    7.4922 C.ar      1 <0>         0.2553
     14 C9          0.1130   -3.2353    6.7192 C.ar      1 <0>        -0.1980
     15 C10         0.0939   -3.1465    5.3444 C.ar      1 <0>        -0.0194
     16 N5          0.1126   -2.1722    8.8835 N.pl3     1 <0>        -0.8634
     17 H1          1.0042    1.8801    0.0026 H         1 <0>         0.0935
     18 H2         -0.5455    1.8639   -0.8728 H         1 <0>         0.1025
     19 H3         -0.5286    1.8543    0.9071 H         1 <0>         0.0867
     20 H4          0.0348    0.2337    5.0309 H         1 <0>         0.1376
     21 H5          0.0582    0.0653    7.4828 H         1 <0>         0.1345
     22 H6          0.1355   -4.2036    7.1971 H         1 <0>         0.1360
     23 H7          0.1009   -4.0446    4.7446 H         1 <0>         0.1325
     24 H8          0.1026   -1.3664    9.4235 H         1 <0>         0.4045
     25 H9          0.1325   -3.0425    9.3113 H         1 <0>         0.4045
@<TRIPOS>BOND
     1    1    2 1
     2    1   17 1
     3    1   18 1
     4    1   19 1
     5    2    6 1
     6    2    3 2
     7    3    4 1
     8    4    5 2
     9    5    9 1
    10    5    6 1
    11    6    7 1
    12    7    8 2
    13    8    9 1
    14    8   10 1
    15   10   15 ar
    16   10   11 ar
    17   11   12 ar
    18   11   20 1
    19   12   13 ar
    20   12   21 1
    21   13   14 ar
    22   13   16 1
    23   14   15 ar
    24   14   22 1
    25   15   23 1
    26   16   24 1
    27   16   25 1
@<TRIPOS>MOLECULE
CHEMBL254367
   50    54     0     0     0
SMALL
USER_CHARGES

@<TRIPOS>ATOM
      1 C1         -0.0164    1.3567    0.0095 C.ar      1 <0>        -0.1179
      2 C2          1.1685    2.0906    0.0021 C.ar      1 <0>        -0.1119
      3 C3          2.3785    1.4679   -0.0132 C.ar      1 <0>        -0.1088
      4 C4          2.4378    0.0637   -0.0214 C.ar      1 <0>        -0.0320
      5 C5          1.2328   -0.6827   -0.0134 C.ar      1 <0>        -0.0520
      6 C6          0.0021   -0.0041    0.0020 C.ar      1 <0>        -0.1035
      7 C7          1.2920   -2.0865   -0.0210 C.ar      1 <0>        -0.1008
      8 C8          2.5022   -2.7094   -0.0359 C.ar      1 <0>        -0.1156
      9 C9          3.6867   -1.9757   -0.0433 C.ar      1 <0>        -0.0981
     10 C10         3.6681   -0.6146   -0.0367 C.ar      1 <0>        -0.0618
     11 C11         4.9603    0.1606   -0.0459 C.3       1 <0>        -0.0979
     12 C12         5.3414    0.5186    1.3675 C.2       1 <0>         0.5048
     13 O1          4.6333    0.1777    2.2914 O.2       1 <0>        -0.4697
     14 N1          6.4691    1.2175    1.6049 N.am      1 <0>        -0.6373
     15 C13         6.8231    1.5500    2.9177 C.2       1 <0>         0.3111
     16 C14         8.0076    2.3056    3.3276 C.ar      1 <0>        -0.1499
     17 C15         9.0730    2.8898    2.6350 C.ar      1 <0>        -0.0800
     18 C16        10.0598    3.5513    3.3389 C.ar      1 <0>         0.1765
     19 C17         9.9954    3.6368    4.7301 C.ar      1 <0>        -0.1076
     20 C18         8.9605    3.0706    5.4168 C.ar      1 <0>        -0.0985
     21 C19         7.9522    2.3977    4.7306 C.ar      1 <0>         0.1238
     22 N2          6.8128    1.7416    5.1262 N.pl3     1 <0>        -0.5012
     23 H1          6.5114    1.6413    6.0427 H         1 <0>         0.4454
     24 N3          6.1527    1.2465    3.9972 N.2       1 <0>        -0.2250
     25 N4         11.1298    4.1383    2.6536 N.pl3     1 <0>        -0.9294
     26 C20        11.6510    3.7588    1.3280 C.3       1 <0>         0.0633
     27 C21        12.2697    4.9750    0.6139 C.3       1 <0>        -0.1308
     28 C22        13.1473    5.6751    1.6950 C.3       1 <0>        -0.5887
     29 S1         12.0769    5.4219    3.1689 S.o2      1 <0>         2.5541
     30 O2         12.8363    4.9193    4.2597 O.2       1 <0>        -0.9443
     31 O3         11.1806    6.5119    3.3354 O.2       1 <0>        -0.9416
     32 H2         -0.9634    1.8756    0.0259 H         1 <0>         0.1234
     33 H3          1.1258    3.1698    0.0084 H         1 <0>         0.1224
     34 H4          3.2883    2.0497   -0.0195 H         1 <0>         0.1207
     35 H5         -0.9241   -0.5595    0.0082 H         1 <0>         0.1275
     36 H6          0.3820   -2.6682   -0.0147 H         1 <0>         0.1277
     37 H7          2.5450   -3.7886   -0.0417 H         1 <0>         0.1250
     38 H8          4.6338   -2.4947   -0.0548 H         1 <0>         0.1225
     39 H9          5.7467   -0.4491   -0.4909 H         1 <0>         0.1116
     40 H10         4.8331    1.0722   -0.6299 H         1 <0>         0.1102
     41 H11         7.0354    1.4901    0.8661 H         1 <0>         0.4210
     42 H12         9.1238    2.8237    1.5583 H         1 <0>         0.1316
     43 H13        10.7734    4.1565    5.2697 H         1 <0>         0.1362
     44 H14         8.9233    3.1445    6.4936 H         1 <0>         0.1400
     45 H15        12.4123    2.9883    1.4490 H         1 <0>         0.0890
     46 H16        10.8359    3.3634    0.7219 H         1 <0>         0.1017
     47 H17        12.8878    4.6489   -0.2225 H         1 <0>         0.1197
     48 H18        11.4867    5.6492    0.2670 H         1 <0>         0.0992
     49 H19        14.1101    5.1770    1.8085 H         1 <0>         0.1479
     50 H20        13.2747    6.7355    1.4772 H         1 <0>         0.1480
@<TRIPOS>BOND
     1    1    6 ar
     2    1    2 ar
     3    1   32 1
     4    2    3 ar
     5    2   33 1
     6    3    4 ar
     7    3   34 1
     8    4   10 ar
     9    4    5 ar
    10    5    6 ar
    11    5    7 ar
    12    6   35 1
    13    7    8 ar
    14    7   36 1
    15    8    9 ar
    16    8   37 1
    17    9   10 ar
    18    9   38 1
    19   10   11 1
    20   11   12 1
    21   11   39 1
    22   11   40 1
    23   12   13 2
    24   12   14 am
    25   14   15 1
    26   14   41 1
    27   15   24 2
    28   15   16 1
    29   16   21 ar
    30   16   17 ar
    31   17   18 ar
    32   17   42 1
    33   18   19 ar
    34   18   25 1
    35   19   20 ar
    36   19   43 1
    37   20   21 ar
    38   20   44 1
    39   21   22 1
    40   22   23 1
    41   22   24 1
    42   25   29 1
    43   25   26 1
    44   26   27 1
    45   26   45 1
    46   26   46 1
    47   27   28 1
    48   27   47 1
    49   27   48 1
    50   28   29 1
    51   28   49 1
    52   28   50 1
    53   29   30 2
    54   29   31 2
@<TRIPOS>MOLECULE
CHEMBL183455
   45    48     0     0     0
SMALL
USER_CHARGES

@<TRIPOS>ATOM
      1 C1         -0.0867    1.4201   -0.7480 C.3       1 <0>         0.0193
      2 O1         -0.0670   -0.0087   -0.7395 O.3       1 <0>        -0.2945
      3 C2         -1.2480   -0.6402   -0.5161 C.ar      1 <0>         0.1768
      4 C3         -2.4081    0.1151   -0.3142 C.ar      1 <0>        -0.2119
      5 C4         -3.6053   -0.4904   -0.0877 C.ar      1 <0>        -0.0220
      6 C5         -3.6816   -1.8912   -0.0561 C.ar      1 <0>        -0.2366
      7 C6         -4.8948   -2.5645    0.1736 C.ar      1 <0>         0.2453
      8 N1         -4.8900   -3.8813    0.1890 N.ar      1 <0>        -0.5559
      9 C7         -3.7714   -4.5770   -0.0065 C.ar      1 <0>         0.5697
     10 N2         -2.6055   -4.0012   -0.2263 N.ar      1 <0>        -0.5619
     11 C8         -2.5096   -2.6654   -0.2604 C.ar      1 <0>         0.2437
     12 C9         -1.2906   -2.0173   -0.4967 C.ar      1 <0>        -0.1227
     13 C10        -0.0350   -2.8194   -0.7223 C.3       1 <0>        -0.0331
     14 C11         1.0372   -2.4253    0.3145 C.3       1 <0>        -0.1131
     15 C12         2.3679   -2.4780   -0.4764 C.3       1 <0>        -0.1216
     16 C13         1.9633   -1.9205   -1.8637 C.3       1 <0>        -0.1177
     17 C14         0.5538   -2.4984   -2.1072 C.3       1 <0>        -0.1086
     18 N3         -3.8349   -5.9597    0.0228 N.pl3     1 <0>        -0.6363
     19 C15        -5.0722   -6.6003    0.1370 C.ar      1 <0>         0.1638
     20 C16        -6.2013   -6.0434   -0.4500 C.ar      1 <0>        -0.1146
     21 C17        -7.4220   -6.6788   -0.3352 C.ar      1 <0>        -0.1003
     22 C18        -7.5213   -7.8680    0.3636 C.ar      1 <0>        -0.1386
     23 C19        -6.3993   -8.4250    0.9496 C.ar      1 <0>        -0.0986
     24 C20        -5.1743   -7.7981    0.8329 C.ar      1 <0>        -0.1495
     25 H1          0.9188    1.7962   -0.9368 H         1 <0>         0.1032
     26 H2         -0.7585    1.7696   -1.5319 H         1 <0>         0.0579
     27 H3         -0.4353    1.7844    0.2184 H         1 <0>         0.0579
     28 H4         -2.3526    1.1934   -0.3379 H         1 <0>         0.1370
     29 H5         -4.4932    0.1047    0.0674 H         1 <0>         0.1388
     30 H6         -5.8099   -2.0139    0.3341 H         1 <0>         0.1787
     31 H7         -0.2541   -3.8845   -0.6474 H         1 <0>         0.0911
     32 H8          0.8549   -1.4176    0.6877 H         1 <0>         0.0713
     33 H9          1.0537   -3.1405    1.1369 H         1 <0>         0.0588
     34 H10         3.1204   -1.8426   -0.0092 H         1 <0>         0.0629
     35 H11         2.7261   -3.5039   -0.5619 H         1 <0>         0.0629
     36 H12         1.9305   -0.8312   -1.8423 H         1 <0>         0.0692
     37 H13         2.6556   -2.2673   -2.6309 H         1 <0>         0.0581
     38 H14         0.6212   -3.4079   -2.7042 H         1 <0>         0.0591
     39 H15        -0.0686   -1.7625   -2.6161 H         1 <0>         0.0597
     40 H16        -3.0209   -6.4839   -0.0360 H         1 <0>         0.4240
     41 H17        -6.1246   -5.1143   -0.9952 H         1 <0>         0.1323
     42 H18        -8.3003   -6.2463   -0.7913 H         1 <0>         0.1242
     43 H19        -8.4772   -8.3628    0.4522 H         1 <0>         0.1223
     44 H20        -6.4803   -9.3537    1.4949 H         1 <0>         0.1255
     45 H21        -4.2975   -8.2361    1.2867 H         1 <0>         0.1238
@<TRIPOS>BOND
     1    1    2 1
     2    1   25 1
     3    1   26 1
     4    1   27 1
     5    2    3 1
     6    3   12 ar
     7    3    4 ar
     8    4    5 ar
     9    4   28 1
    10    5    6 ar
    11    5   29 1
    12    6   11 ar
    13    6    7 ar
    14    7    8 ar
    15    7   30 1
    16    8    9 ar
    17    9   10 ar
    18    9   18 1
    19   10   11 ar
    20   11   12 ar
    21   12   13 1
    22   13   17 1
    23   13   14 1
    24   13   31 1
    25   14   15 1
    26   14   32 1
    27   14   33 1
    28   15   16 1
    29   15   34 1
    30   15   35 1
    31   16   17 1
    32   16   36 1
    33   16   37 1
    34   17   38 1
    35   17   39 1
    36   18   19 1
    37   18   40 1
    38   19   24 ar
    39   19   20 ar
    40   20   21 ar
    41   20   41 1
    42   21   22 ar
    43   21   42 1
    44   22   23 ar
    45   22   43 1
    46   23   24 ar
    47   23   44 1
    48   24   45 1
@<TRIPOS>MOLECULE
CHEMBL310840
   42    44     0     0     0
SMALL
USER_CHARGES

@<TRIPOS>ATOM
      1 C1          0.0310    1.5020    0.0038 C.3       1 <0>        -0.1519
      2 C2          0.0398   -0.0280   -0.0053 C.3       1 <0>        -0.1212
      3 C3         -1.3996   -0.5464    0.0097 C.3       1 <0>        -0.1177
      4 C4         -1.3908   -2.0764    0.0006 C.3       1 <0>         0.0802
      5 O1         -2.7352   -2.5606    0.0146 O.3       1 <0>        -0.3212
      6 C5         -2.9045   -3.9014    0.0089 C.ar      1 <0>         0.3172
      7 C6         -3.0044   -4.6137   -1.1931 C.ar      1 <0>        -0.2994
      8 C7         -3.1804   -6.0096   -1.1712 C.ar      1 <0>         0.2464
      9 N1         -3.2565   -6.6885   -0.0593 N.ar      1 <0>        -0.4759
     10 C8         -3.1705   -6.0908    1.1440 C.ar      1 <0>         0.3003
     11 N2         -3.2152   -6.5252    2.3882 N.2       1 <0>        -0.2816
     12 N3         -3.0710   -5.4395    3.2584 N.pl3     1 <0>        -0.4063
     13 C9         -2.9338   -4.3074    2.5582 C.2       1 <0>         0.1462
     14 C10        -2.9809   -4.6337    1.2156 C.ar      1 <0>        -0.3013
     15 C11        -2.9259   -3.9028   -2.4773 C.2       1 <0>         0.4575
     16 O2         -2.8732   -2.6871   -2.4977 O.2       1 <0>        -0.4144
     17 C12        -2.9108   -4.6633   -3.7419 C.ar      1 <0>        -0.2281
     18 C13        -4.1002   -4.8808   -4.4465 C.ar      1 <0>         0.1682
     19 C14        -4.0767   -5.5937   -5.6302 C.ar      1 <0>        -0.1645
     20 C15        -2.8824   -6.0921   -6.1186 C.ar      1 <0>        -0.0087
     21 C16        -1.7021   -5.8819   -5.4287 C.ar      1 <0>        -0.1646
     22 C17        -1.7062   -5.1663   -4.2463 C.ar      1 <0>         0.1659
     23 F1         -0.5515   -4.9573   -3.5769 F         1 <0>        -0.1218
     24 C18        -2.8671   -6.8691   -7.4098 C.3       1 <0>        -0.1222
     25 F2         -5.2679   -4.3956   -3.9708 F         1 <0>        -0.1195
     26 H1          1.0564    1.8713   -0.0069 H         1 <0>         0.0574
     27 H2         -0.4961    1.8675   -0.8775 H         1 <0>         0.0572
     28 H3         -0.4738    1.8570    0.9023 H         1 <0>         0.0557
     29 H4          0.5445   -0.3831   -0.9038 H         1 <0>         0.0653
     30 H5          0.5668   -0.3935    0.8760 H         1 <0>         0.0633
     31 H6         -1.9043   -0.1913    0.9082 H         1 <0>         0.0732
     32 H7         -1.9267   -0.1809   -0.8716 H         1 <0>         0.0805
     33 H8         -0.8861   -2.4315   -0.8979 H         1 <0>         0.0604
     34 H9         -0.8637   -2.4419    0.8819 H         1 <0>         0.0560
     35 H10        -3.2558   -6.5389   -2.1096 H         1 <0>         0.1702
     36 H11        -2.8054   -3.3166    2.9684 H         1 <0>         0.2012
     37 H12        -4.9937   -5.7625   -6.1754 H         1 <0>         0.1514
     38 H13        -0.7741   -6.2746   -5.8172 H         1 <0>         0.1510
     39 H14        -2.7134   -6.1846   -8.2440 H         1 <0>         0.0844
     40 H15        -2.0580   -7.5991   -7.3849 H         1 <0>         0.0784
     41 H16        -3.8188   -7.3857   -7.5342 H         1 <0>         0.0785
     42 H17        -3.0709   -5.4985    4.2266 H         1 <0>         0.4544
@<TRIPOS>BOND
     1    1    2 1
     2    1   26 1
     3    1   27 1
     4    1   28 1
     5    2    3 1
     6    2   29 1
     7    2   30 1
     8    3    4 1
     9    3   31 1
    10    3   32 1
    11    4    5 1
    12    4   33 1
    13    4   34 1
    14    5    6 1
    15    6   14 ar
    16    6    7 ar
    17    7    8 ar
    18    7   15 1
    19    8    9 ar
    20    8   35 1
    21    9   10 ar
    22   10   14 ar
    23   10   11 2
    24   11   12 1
    25   12   13 1
    26   12   42 1
    27   13   14 2
    28   13   36 1
    29   15   16 2
    30   15   17 1
    31   17   22 ar
    32   17   18 ar
    33   18   19 ar
    34   18   25 1
    35   19   20 ar
    36   19   37 1
    37   20   21 ar
    38   20   24 1
    39   21   22 ar
    40   21   38 1
    41   22   23 1
    42   24   39 1
    43   24   40 1
    44   24   41 1
@<TRIPOS>MOLECULE
CHEMBL310840
   42    44     0     0     0
SMALL
USER_CHARGES

@<TRIPOS>ATOM
      1 C1          0.0290    1.5028    0.0044 C.3       1 <0>        -0.1519
      2 C2          0.0383   -0.0272   -0.0047 C.3       1 <0>        -0.1211
      3 C3         -1.4010   -0.5460    0.0100 C.3       1 <0>        -0.1178
      4 C4         -1.3918   -2.0759    0.0009 C.3       1 <0>         0.0792
      5 O1         -2.7361   -2.5605    0.0146 O.3       1 <0>        -0.3178
      6 C5         -2.9053   -3.9031    0.0089 C.ar      1 <0>         0.2999
      7 C6         -3.0049   -4.6169   -1.1971 C.ar      1 <0>        -0.2897
      8 C7         -3.1791   -6.0070   -1.1524 C.ar      1 <0>         0.2375
      9 N1         -3.2506   -6.6509   -0.0119 N.ar      1 <0>        -0.5089
     10 C8         -3.1623   -6.0249    1.1599 C.ar      1 <0>         0.3548
     11 N2         -3.2062   -6.4563    2.4550 N.pl3     1 <0>        -0.4834
     12 N3         -3.0619   -5.3612    3.3120 N.2       1 <0>        -0.2311
     13 C9         -2.9298   -4.2662    2.6190 C.2       1 <0>         0.1122
     14 C10        -2.9812   -4.6296    1.2076 C.ar      1 <0>        -0.2657
     15 C11        -2.9278   -3.9148   -2.4894 C.2       1 <0>         0.4586
     16 O2         -2.8757   -2.6998   -2.5194 O.2       1 <0>        -0.4076
     17 C12        -2.9139   -4.6850   -3.7477 C.ar      1 <0>        -0.2303
     18 C13        -4.1042   -4.9085   -4.4494 C.ar      1 <0>         0.1686
     19 C14        -4.0818   -5.6311   -5.6272 C.ar      1 <0>        -0.1644
     20 C15        -2.8878   -6.1328   -6.1130 C.ar      1 <0>        -0.0075
     21 C16        -1.7067   -5.9167   -5.4261 C.ar      1 <0>        -0.1646
     22 C17        -1.7096   -5.1915   -4.2497 C.ar      1 <0>         0.1662
     23 F1         -0.5541   -4.9764   -3.5835 F         1 <0>        -0.1215
     24 C18        -2.8736   -6.9200   -7.3979 C.3       1 <0>        -0.1226
     25 F2         -5.2715   -4.4197   -3.9764 F         1 <0>        -0.1191
     26 H1          1.0544    1.8724   -0.0060 H         1 <0>         0.0572
     27 H2         -0.4979    1.8682   -0.8771 H         1 <0>         0.0567
     28 H3         -0.4760    1.8578    0.9027 H         1 <0>         0.0563
     29 H4          0.5433   -0.3821   -0.9030 H         1 <0>         0.0645
     30 H5          0.5652   -0.3925    0.8768 H         1 <0>         0.0642
     31 H6         -1.9061   -0.1910    0.9083 H         1 <0>         0.0749
     32 H7         -1.9279   -0.1806   -0.8715 H         1 <0>         0.0795
     33 H8         -0.8867   -2.4309   -0.8974 H         1 <0>         0.0586
     34 H9         -0.8649   -2.4413    0.8824 H         1 <0>         0.0585
     35 H10        -3.2566   -6.5598   -2.0769 H         1 <0>         0.1743
     36 H11        -2.8019   -3.2705    3.0172 H         1 <0>         0.2077
     37 H12        -4.9993   -5.8049   -6.1698 H         1 <0>         0.1519
     38 H13        -0.7791   -6.3124   -5.8124 H         1 <0>         0.1516
     39 H14        -2.7212   -6.2420   -8.2377 H         1 <0>         0.0851
     40 H15        -2.0642   -7.6494   -7.3683 H         1 <0>         0.0786
     41 H16        -3.8253   -7.4379   -7.5173 H         1 <0>         0.0788
     42 H17        -3.3200   -7.3777    2.7360 H         1 <0>         0.4499
@<TRIPOS>BOND
     1    1    2 1
     2    1   26 1
     3    1   27 1
     4    1   28 1
     5    2    3 1
     6    2   29 1
     7    2   30 1
     8    3    4 1
     9    3   31 1
    10    3   32 1
    11    4    5 1
    12    4   33 1
    13    4   34 1
    14    5    6 1
    15    6   14 ar
    16    6    7 ar
    17    7    8 ar
    18    7   15 1
    19    8    9 ar
    20    8   35 1
    21    9   10 ar
    22   10   14 ar
    23   10   11 1
    24   11   42 1
    25   11   12 1
    26   12   13 2
    27   13   36 1
    28   13   14 1
    29   15   16 2
    30   15   17 1
    31   17   22 ar
    32   17   18 ar
    33   18   19 ar
    34   18   25 1
    35   19   20 ar
    36   19   37 1
    37   20   21 ar
    38   20   24 1
    39   21   22 ar
    40   21   38 1
    41   22   23 1
    42   24   39 1
    43   24   40 1
    44   24   41 1
@<TRIPOS>MOLECULE
CHEMBL495754
   51    53     0     0     0
SMALL
USER_CHARGES

@<TRIPOS>ATOM
      1 C1         -0.0187    1.5258    0.0104 C.3       1 <0>        -0.1417
      2 C2          0.0021   -0.0041    0.0020 C.3       1 <0>         0.0165
      3 C3          0.7421   -0.5109    1.2415 C.3       1 <0>        -0.1420
      4 C4         -1.4333   -0.5336    0.0129 C.3       1 <0>        -0.1468
      5 C5          0.7074   -0.4901   -1.2379 C.2       1 <0>        -0.0145
      6 C6          1.9790   -0.2319   -1.5855 C.2       1 <0>        -0.0386
      7 N1          2.2153   -0.8490   -2.7568 N.2       1 <0>        -0.4516
      8 C7          1.1320   -1.4698   -3.1277 C.2       1 <0>         0.1869
      9 O1          0.1830   -1.2702   -2.2034 O.3       1 <0>        -0.1872
     10 C8          0.9740   -2.2836   -4.3862 C.3       1 <0>        -0.0238
     11 S1          1.4238   -4.0087   -4.0512 S.3       1 <0>         0.0244
     12 C9          1.1895   -4.8185   -5.5985 C.2       1 <0>        -0.2516
     13 C10         1.3712   -6.1253   -5.9312 C.2       1 <0>         0.1088
     14 N2          1.1326   -6.5237   -7.1691 N.2       1 <0>        -0.5613
     15 C11         0.7199   -5.6765   -8.0939 C.2       1 <0>         0.3891
     16 S2          0.6397   -4.1518   -7.1640 S.3       1 <0>        -0.0153
     17 N3          0.4218   -5.9090   -9.4308 N.pl3     1 <0>        -0.6728
     18 C12         0.5537   -7.2580   -9.9869 C.3       1 <0>         0.1360
     19 C13         0.1673   -7.2395  -11.4671 C.3       1 <0>        -0.0995
     20 C14        -1.3159   -6.8891  -11.6027 C.3       1 <0>        -0.1163
     21 C15        -1.7024   -6.8706  -13.0829 C.3       1 <0>        -0.1205
     22 C16        -1.4462   -8.2496  -13.6942 C.3       1 <0>        -0.1222
     23 C17         0.0370   -8.6000  -13.5586 C.3       1 <0>        -0.1192
     24 C18         0.4235   -8.6185  -12.0784 C.3       1 <0>        -0.1110
     25 H1          1.0039    1.9031    0.0027 H         1 <0>         0.0639
     26 H2         -0.5459    1.8868   -0.8726 H         1 <0>         0.0607
     27 H3         -0.5289    1.8773    0.9072 H         1 <0>         0.0730
     28 H4          0.2319   -0.1594    2.1383 H         1 <0>         0.0731
     29 H5          0.7568   -1.6008    1.2356 H         1 <0>         0.0617
     30 H6          1.7647   -0.1336    1.2338 H         1 <0>         0.0640
     31 H7         -1.9605   -0.1726   -0.8702 H         1 <0>         0.0608
     32 H8         -1.4185   -1.6235    0.0069 H         1 <0>         0.0621
     33 H9         -1.9435   -0.1821    0.9097 H         1 <0>         0.0687
     34 H10         2.6845    0.3639   -1.0254 H         1 <0>         0.1866
     35 H11        -0.0621   -2.2368   -4.7214 H         1 <0>         0.1173
     36 H12         1.6255   -1.8824   -5.1625 H         1 <0>         0.1299
     37 H13         1.7086   -6.8330   -5.1884 H         1 <0>         0.1695
     38 H14         0.1263   -5.1782   -9.9961 H         1 <0>         0.4190
     39 H15         1.5858   -7.5936   -9.8849 H         1 <0>         0.0727
     40 H16        -0.1048   -7.9391   -9.4479 H         1 <0>         0.0727
     41 H17         0.7660   -6.4935  -11.9897 H         1 <0>         0.0794
     42 H18        -1.9147   -7.6351  -11.0801 H         1 <0>         0.0669
     43 H19        -1.4984   -5.9067  -11.1672 H         1 <0>         0.0599
     44 H20        -2.7590   -6.6210  -13.1795 H         1 <0>         0.0632
     45 H21        -1.1036   -6.1246  -13.6055 H         1 <0>         0.0621
     46 H22        -2.0450   -8.9956  -13.1716 H         1 <0>         0.0625
     47 H23        -1.7215   -8.2365  -14.7487 H         1 <0>         0.0622
     48 H24         0.2195   -9.5824  -13.9941 H         1 <0>         0.0650
     49 H25         0.6358   -7.8540  -14.0812 H         1 <0>         0.0625
     50 H26         1.4801   -8.8681  -11.9818 H         1 <0>         0.0671
     51 H27        -0.1753   -9.3645  -11.5558 H         1 <0>         0.0675
@<TRIPOS>BOND
     1    1    2 1
     2    1   25 1
     3    1   26 1
     4    1   27 1
     5    2    3 1
     6    2    4 1
     7    2    5 1
     8    3   28 1
     9    3   29 1
    10    3   30 1
    11    4   31 1
    12    4   32 1
    13    4   33 1
    14    5    9 1
    15    5    6 2
    16    6    7 1
    17    6   34 1
    18    7    8 2
    19    8    9 1
    20    8   10 1
    21   10   11 1
    22   10   35 1
    23   10   36 1
    24   11   12 1
    25   12   16 1
    26   12   13 2
    27   13   14 1
    28   13   37 1
    29   14   15 2
    30   15   16 1
    31   15   17 1
    32   17   18 1
    33   17   38 1
    34   18   19 1
    35   18   39 1
    36   18   40 1
    37   19   24 1
    38   19   20 1
    39   19   41 1
    40   20   21 1
    41   20   42 1
    42   20   43 1
    43   21   22 1
    44   21   44 1
    45   21   45 1
    46   22   23 1
    47   22   46 1
    48   22   47 1
    49   23   24 1
    50   23   48 1
    51   23   49 1
    52   24   50 1
    53   24   51 1
@<TRIPOS>MOLECULE
CHEMBL495557
   49    51     0     0     0
SMALL
USER_CHARGES

@<TRIPOS>ATOM
      1 C1         -0.0187    1.5258    0.0104 C.3       1 <0>        -0.1417
      2 C2          0.0021   -0.0041    0.0020 C.3       1 <0>         0.0165
      3 C3          0.7421   -0.5109    1.2415 C.3       1 <0>        -0.1420
      4 C4         -1.4333   -0.5336    0.0129 C.3       1 <0>        -0.1468
      5 C5          0.7074   -0.4901   -1.2379 C.2       1 <0>        -0.0143
      6 C6          1.9790   -0.2319   -1.5855 C.2       1 <0>        -0.0386
      7 N1          2.2153   -0.8490   -2.7568 N.2       1 <0>        -0.4515
      8 C7          1.1320   -1.4698   -3.1277 C.2       1 <0>         0.1866
      9 O1          0.1830   -1.2702   -2.2034 O.3       1 <0>        -0.1872
     10 C8          0.9740   -2.2836   -4.3862 C.3       1 <0>        -0.0238
     11 S1          1.4238   -4.0087   -4.0512 S.3       1 <0>         0.0249
     12 C9          1.1895   -4.8185   -5.5985 C.2       1 <0>        -0.2506
     13 C10         1.3712   -6.1253   -5.9312 C.2       1 <0>         0.1080
     14 N2          1.1326   -6.5237   -7.1691 N.2       1 <0>        -0.5593
     15 C11         0.7199   -5.6765   -8.0939 C.2       1 <0>         0.3899
     16 S2          0.6397   -4.1518   -7.1640 S.3       1 <0>        -0.0146
     17 N3          0.4218   -5.9090   -9.4308 N.pl3     1 <0>        -0.6713
     18 C12         0.5537   -7.2580   -9.9869 C.3       1 <0>         0.1577
     19 C13         2.0022   -7.4912  -10.4211 C.3       1 <0>        -0.1281
     20 C14         2.1400   -8.8999  -11.0018 C.3       1 <0>        -0.1102
     21 C15         1.2150   -9.0455  -12.2119 C.3       1 <0>         0.1023
     22 C16        -0.2334   -8.8123  -11.7776 C.3       1 <0>        -0.1476
     23 C17        -0.3712   -7.4035  -11.1969 C.3       1 <0>        -0.1252
     24 O2          1.3437  -10.3613  -12.7542 O.3       1 <0>        -0.5666
     25 H1          1.0039    1.9031    0.0027 H         1 <0>         0.0640
     26 H2         -0.5459    1.8868   -0.8726 H         1 <0>         0.0607
     27 H3         -0.5289    1.8773    0.9072 H         1 <0>         0.0731
     28 H4          0.2319   -0.1594    2.1383 H         1 <0>         0.0731
     29 H5          0.7568   -1.6008    1.2356 H         1 <0>         0.0618
     30 H6          1.7647   -0.1336    1.2338 H         1 <0>         0.0640
     31 H7         -1.9605   -0.1726   -0.8702 H         1 <0>         0.0608
     32 H8         -1.4185   -1.6235    0.0069 H         1 <0>         0.0621
     33 H9         -1.9435   -0.1821    0.9097 H         1 <0>         0.0687
     34 H10         2.6845    0.3639   -1.0254 H         1 <0>         0.1866
     35 H11        -0.0621   -2.2368   -4.7214 H         1 <0>         0.1173
     36 H12         1.6255   -1.8824   -5.1625 H         1 <0>         0.1299
     37 H13         1.7086   -6.8330   -5.1884 H         1 <0>         0.1697
     38 H14         0.1263   -5.1782   -9.9961 H         1 <0>         0.4185
     39 H15         0.2790   -7.9918   -9.2291 H         1 <0>         0.0952
     40 H16         2.2769   -6.7573  -11.1788 H         1 <0>         0.0675
     41 H17         2.6611   -7.3874   -9.5591 H         1 <0>         0.0778
     42 H18         3.1719   -9.0661  -11.3112 H         1 <0>         0.0749
     43 H19         1.8652   -9.6337  -10.2441 H         1 <0>         0.0744
     44 H20         1.4898   -8.3117  -12.9696 H         1 <0>         0.0563
     45 H21        -0.8924   -8.9161  -12.6396 H         1 <0>         0.0729
     46 H22        -0.5082   -9.5461  -11.0199 H         1 <0>         0.0765
     47 H23        -1.4031   -7.2374  -10.8875 H         1 <0>         0.0761
     48 H24        -0.0965   -6.6697  -11.9546 H         1 <0>         0.0724
     49 H25         0.7846  -10.5250  -13.5260 H         1 <0>         0.3791
@<TRIPOS>BOND
     1    1    2 1
     2    1   25 1
     3    1   26 1
     4    1   27 1
     5    2    3 1
     6    2    4 1
     7    2    5 1
     8    3   28 1
     9    3   29 1
    10    3   30 1
    11    4   31 1
    12    4   32 1
    13    4   33 1
    14    5    9 1
    15    5    6 2
    16    6    7 1
    17    6   34 1
    18    7    8 2
    19    8    9 1
    20    8   10 1
    21   10   11 1
    22   10   35 1
    23   10   36 1
    24   11   12 1
    25   12   16 1
    26   12   13 2
    27   13   14 1
    28   13   37 1
    29   14   15 2
    30   15   16 1
    31   15   17 1
    32   17   18 1
    33   17   38 1
    34   18   23 1
    35   18   19 1
    36   18   39 1
    37   19   20 1
    38   19   40 1
    39   19   41 1
    40   20   21 1
    41   20   42 1
    42   20   43 1
    43   21   22 1
    44   21   24 1
    45   21   44 1
    46   22   23 1
    47   22   45 1
    48   22   46 1
    49   23   47 1
    50   23   48 1
    51   24   49 1
@<TRIPOS>MOLECULE
CHEMBL178452
   32    34     0     0     0
SMALL
USER_CHARGES

@<TRIPOS>ATOM
      1 C1          0.7634   -0.3714   -1.1579 C.3       1 <0>        -0.1467
      2 C2         -0.0082   -0.0048    0.1114 C.3       1 <0>        -0.1006
      3 C3         -0.0423    1.5170    0.2659 C.3       1 <0>        -0.1470
      4 C4         -1.4383   -0.5394    0.0112 C.3       1 <0>        -0.1023
      5 C5         -1.4115   -2.0692    0.0033 C.3       1 <0>        -0.0068
      6 C6         -2.8168   -2.5902   -0.2949 C.3       1 <0>        -0.0309
      7 C7         -3.7126   -2.4981    0.9101 C.2       1 <0>        -0.2371
      8 C8         -5.0345   -2.2912    0.9887 C.2       1 <0>         0.0692
      9 N1         -5.3879   -2.3254    2.2954 N.pl3     1 <0>        -0.4920
     10 H1         -6.2856   -2.2116    2.6449 H         1 <0>         0.4407
     11 N2         -4.2295   -2.5540    3.0584 N.2       1 <0>        -0.2801
     12 C9         -3.2278   -2.6418    2.2440 C.2       1 <0>         0.1656
     13 C10        -1.7686   -2.8176    2.4390 C.2       1 <0>        -0.1754
     14 C11        -0.9048   -2.5575    1.3337 C.2       1 <0>         0.1138
     15 N3          0.3059   -2.8123    1.7216 N.2       1 <0>        -0.2741
     16 N4          0.2739   -3.1991    3.0706 N.pl3     1 <0>        -0.4857
     17 H2          1.0424   -3.4413    3.6107 H         1 <0>         0.4439
     18 C12        -1.0140   -3.1753    3.4887 C.2       1 <0>         0.1028
     19 H3          1.7822    0.0095   -1.0865 H         1 <0>         0.0518
     20 H4          0.7877   -1.4556   -1.2679 H         1 <0>         0.0578
     21 H5          0.2701    0.0707   -2.0235 H         1 <0>         0.0530
     22 H6          0.4851   -0.4469    0.9770 H         1 <0>         0.0737
     23 H7          0.9698    1.8888    0.4257 H         1 <0>         0.0525
     24 H8         -0.4554    1.9648   -0.6380 H         1 <0>         0.0541
     25 H9         -0.6657    1.7816    1.1200 H         1 <0>         0.0512
     26 H10        -2.0173   -0.1906    0.8662 H         1 <0>         0.0650
     27 H11        -1.8971   -0.1793   -0.9096 H         1 <0>         0.0735
     28 H12        -0.7344   -2.4082   -0.7807 H         1 <0>         0.0951
     29 H13        -3.2492   -2.0027   -1.1049 H         1 <0>         0.0816
     30 H14        -2.7503   -3.6317   -0.6095 H         1 <0>         0.0726
     31 H15        -5.7015   -2.1264    0.1553 H         1 <0>         0.1773
     32 H16        -1.3681   -3.4023    4.4834 H         1 <0>         0.1835
@<TRIPOS>BOND
     1    1    2 1
     2    1   19 1
     3    1   20 1
     4    1   21 1
     5    2    3 1
     6    2    4 1
     7    2   22 1
     8    3   23 1
     9    3   24 1
    10    3   25 1
    11    4    5 1
    12    4   26 1
    13    4   27 1
    14    5   14 1
    15    5    6 1
    16    5   28 1
    17    6    7 1
    18    6   29 1
    19    6   30 1
    20    7   12 1
    21    7    8 2
    22    8    9 1
    23    8   31 1
    24    9   10 1
    25    9   11 1
    26   11   12 2
    27   12   13 1
    28   13   18 2
    29   13   14 1
    30   14   15 2
    31   15   16 1
    32   16   17 1
    33   16   18 1
    34   18   32 1
@<TRIPOS>MOLECULE
CHEMBL178452
   32    34     0     0     0
SMALL
USER_CHARGES

@<TRIPOS>ATOM
      1 C1         -0.0187    1.5258    0.0104 C.3       1 <0>        -0.1527
      2 C2          0.0021   -0.0041    0.0020 C.3       1 <0>        -0.1039
      3 C3          0.7182   -0.4975   -1.2568 C.3       1 <0>        -0.1469
      4 C4          0.7421   -0.5109    1.2415 C.3       1 <0>        -0.1053
      5 C5         -0.0416   -0.1236    2.4973 C.3       1 <0>        -0.0241
      6 C6          0.7670   -0.5241    3.7316 C.3       1 <0>        -0.0268
      7 C7          0.6620   -2.0018    3.9972 C.2       1 <0>        -0.2464
      8 C8          1.5425   -2.8497    4.5441 C.2       1 <0>         0.0722
      9 N1          0.9673   -4.0747    4.5969 N.pl3     1 <0>        -0.4924
     10 H1          1.3757   -4.8797    4.9519 H         1 <0>         0.4409
     11 N2         -0.3235   -3.9785    4.0483 N.2       1 <0>        -0.2766
     12 C9         -0.5075   -2.7530    3.6753 C.2       1 <0>         0.1682
     13 C10        -1.6204   -2.0504    2.9945 C.2       1 <0>        -0.1780
     14 C11        -1.3850   -0.7980    2.4630 C.2       1 <0>         0.1290
     15 N3         -2.5451   -0.3704    1.9477 N.pl3     1 <0>        -0.4533
     16 N4         -3.5007   -1.3860    2.1087 N.2       1 <0>        -0.2965
     17 H2         -2.6987    0.4934    1.5341 H         1 <0>         0.4398
     18 C12        -2.9383   -2.3953    2.7315 C.2       1 <0>         0.0895
     19 H3          1.0039    1.9031    0.0027 H         1 <0>         0.0599
     20 H4         -0.5459    1.8868   -0.8726 H         1 <0>         0.0561
     21 H5         -0.5289    1.8773    0.9072 H         1 <0>         0.0523
     22 H6         -1.0205   -0.3814    0.0098 H         1 <0>         0.0666
     23 H7          1.7408   -0.1202   -1.2645 H         1 <0>         0.0564
     24 H8          0.7330   -1.5874   -1.2628 H         1 <0>         0.0542
     25 H9          0.1910   -0.1364   -2.1398 H         1 <0>         0.0548
     26 H10         0.8346   -1.5958    1.1912 H         1 <0>         0.0708
     27 H11         1.7350   -0.0630    1.2804 H         1 <0>         0.0772
     28 H12        -0.1883    0.9564    2.5044 H         1 <0>         0.0921
     29 H13         1.8134   -0.2633    3.5730 H         1 <0>         0.0833
     30 H14         0.3913    0.0217    4.5970 H         1 <0>         0.0738
     31 H15         2.5372   -2.6004    4.8832 H         1 <0>         0.1767
     32 H16        -3.4161   -3.3281    2.9923 H         1 <0>         0.1891
@<TRIPOS>BOND
     1    1    2 1
     2    1   19 1
     3    1   20 1
     4    1   21 1
     5    2    3 1
     6    2    4 1
     7    2   22 1
     8    3   23 1
     9    3   24 1
    10    3   25 1
    11    4    5 1
    12    4   26 1
    13    4   27 1
    14    5    6 1
    15    5   28 1
    16    5   14 1
    17    6    7 1
    18    6   29 1
    19    6   30 1
    20    7   12 1
    21    7    8 2
    22    8    9 1
    23    8   31 1
    24    9   10 1
    25    9   11 1
    26   11   12 2
    27   12   13 1
    28   13   18 1
    29   13   14 2
    30   14   15 1
    31   15   16 1
    32   15   17 1
    33   16   18 2
    34   18   32 1
@<TRIPOS>MOLECULE
CHEMBL178452
   32    34     0     0     0
SMALL
USER_CHARGES

@<TRIPOS>ATOM
      1 C1          0.7640   -0.3712   -1.1572 C.3       1 <0>        -0.1470
      2 C2         -0.0081   -0.0048    0.1119 C.3       1 <0>        -0.1004
      3 C3         -0.0421    1.5170    0.2667 C.3       1 <0>        -0.1472
      4 C4         -1.4382   -0.5392    0.0111 C.3       1 <0>        -0.1025
      5 C5         -1.4115   -2.0690    0.0032 C.3       1 <0>        -0.0092
      6 C6         -2.8193   -2.5928   -0.2830 C.3       1 <0>        -0.0307
      7 C7         -3.7035   -2.5116    0.9308 C.2       1 <0>        -0.2410
      8 C8         -5.0710   -2.2991    1.0165 C.2       1 <0>         0.0655
      9 N1         -5.4223   -2.3275    2.2810 N.2       1 <0>        -0.2995
     10 H1         -4.2454   -2.6446    4.0260 H         1 <0>         0.4379
     11 N2         -4.2758   -2.5626    3.0599 N.pl3     1 <0>        -0.4595
     12 C9         -3.2320   -2.6533    2.2227 C.2       1 <0>         0.1711
     13 C10        -1.7808   -2.8279    2.4300 C.2       1 <0>        -0.1952
     14 C11        -0.9051   -2.5601    1.3333 C.2       1 <0>         0.1204
     15 N3          0.3015   -2.8114    1.7304 N.2       1 <0>        -0.2698
     16 N4          0.2591   -3.2069    3.0768 N.pl3     1 <0>        -0.4823
     17 H2          1.0240   -3.4499    3.6217 H         1 <0>         0.4449
     18 C12        -1.0318   -3.1915    3.4846 C.2       1 <0>         0.0930
     19 H3          1.7828    0.0095   -1.0853 H         1 <0>         0.0518
     20 H4          0.7882   -1.4553   -1.2675 H         1 <0>         0.0575
     21 H5          0.2710    0.0711   -2.0228 H         1 <0>         0.0540
     22 H6          0.4849   -0.4471    0.9776 H         1 <0>         0.0721
     23 H7         -0.6656    1.7815    1.1207 H         1 <0>         0.0510
     24 H8          0.9700    1.8886    0.4268 H         1 <0>         0.0525
     25 H9         -0.4549    1.9650   -0.6372 H         1 <0>         0.0551
     26 H10        -2.0176   -0.1903    0.8658 H         1 <0>         0.0651
     27 H11        -1.8965   -0.1791   -0.9100 H         1 <0>         0.0758
     28 H12        -0.7381   -2.4100   -0.7831 H         1 <0>         0.0964
     29 H13        -3.2619   -2.0017   -1.0849 H         1 <0>         0.0842
     30 H14        -2.7530   -3.6324   -0.6037 H         1 <0>         0.0712
     31 H15        -5.7366   -2.1370    0.1816 H         1 <0>         0.1839
     32 H16        -1.3928   -3.4274    4.4747 H         1 <0>         0.1812
@<TRIPOS>BOND
     1    1    2 1
     2    1   19 1
     3    1   20 1
     4    1   21 1
     5    2    3 1
     6    2    4 1
     7    2   22 1
     8    3   23 1
     9    3   24 1
    10    3   25 1
    11    4    5 1
    12    4   26 1
    13    4   27 1
    14    5   14 1
    15    5    6 1
    16    5   28 1
    17    6   29 1
    18    6   30 1
    19    6    7 1
    20    7    8 1
    21    7   12 2
    22    8    9 2
    23    8   31 1
    24    9   11 1
    25   10   11 1
    26   11   12 1
    27   12   13 1
    28   13   18 2
    29   13   14 1
    30   14   15 2
    31   15   16 1
    32   16   17 1
    33   16   18 1
    34   18   32 1
@<TRIPOS>MOLECULE
CHEMBL178452
   32    34     0     0     0
SMALL
USER_CHARGES

@<TRIPOS>ATOM
      1 C1         -0.0187    1.5258    0.0104 C.3       1 <0>        -0.1445
      2 C2          0.0021   -0.0041    0.0020 C.3       1 <0>        -0.1099
      3 C3          0.7421   -0.5109    1.2415 C.3       1 <0>        -0.1482
      4 C4         -1.4333   -0.5336    0.0129 C.3       1 <0>        -0.1054
      5 C5         -1.4157   -2.0577   -0.1212 C.3       1 <0>        -0.0069
      6 C6         -2.8345   -2.5910    0.0730 C.3       1 <0>        -0.0297
      7 C7         -2.9690   -4.0076   -0.4152 C.2       1 <0>        -0.2407
      8 C8         -3.7515   -5.0019    0.0269 C.2       1 <0>         0.0704
      9 N1         -3.5404   -6.0837   -0.7597 N.pl3     1 <0>        -0.4919
     10 H1         -3.9787   -6.9446   -0.6722 H         1 <0>         0.4410
     11 N2         -2.5765   -5.7442   -1.7250 N.2       1 <0>        -0.2798
     12 C9         -2.2203   -4.5177   -1.5171 C.2       1 <0>         0.1649
     13 C10        -1.2209   -3.6253   -2.1522 C.2       1 <0>        -0.1773
     14 C11        -0.8604   -2.4247   -1.4710 C.2       1 <0>         0.1129
     15 N3         -0.0133   -1.7937   -2.2231 N.2       1 <0>        -0.2708
     16 N4          0.2286   -2.5634   -3.3718 N.pl3     1 <0>        -0.4870
     17 H2          0.8261   -2.3274   -4.0986 H         1 <0>         0.4435
     18 C12        -0.5148   -3.6925   -3.2906 C.2       1 <0>         0.1047
     19 H3          1.0039    1.9031    0.0027 H         1 <0>         0.0518
     20 H4         -0.5459    1.8868   -0.8726 H         1 <0>         0.0519
     21 H5         -0.5289    1.8773    0.9072 H         1 <0>         0.0506
     22 H6          0.5123   -0.3556   -0.8948 H         1 <0>         0.0990
     23 H7          1.7647   -0.1336    1.2338 H         1 <0>         0.0513
     24 H8          0.2319   -0.1594    2.1383 H         1 <0>         0.0519
     25 H9          0.7568   -1.6008    1.2356 H         1 <0>         0.0529
     26 H10        -1.9156   -0.2570    0.9504 H         1 <0>         0.0694
     27 H11        -1.9862   -0.1019   -0.8214 H         1 <0>         0.0657
     28 H12        -0.7717   -2.4746    0.6531 H         1 <0>         0.0958
     29 H13        -3.0856   -2.5552    1.1331 H         1 <0>         0.0802
     30 H14        -3.5306   -1.9579   -0.4773 H         1 <0>         0.0732
     31 H15        -4.4319   -4.9494    0.8640 H         1 <0>         0.1779
     32 H16        -0.5354   -4.4981   -4.0096 H         1 <0>         0.1834
@<TRIPOS>BOND
     1    1    2 1
     2    1   19 1
     3    1   20 1
     4    1   21 1
     5    2    3 1
     6    2    4 1
     7    2   22 1
     8    3   23 1
     9    3   24 1
    10    3   25 1
    11    4    5 1
    12    4   26 1
    13    4   27 1
    14    5   14 1
    15    5    6 1
    16    5   28 1
    17    6    7 1
    18    6   29 1
    19    6   30 1
    20    7   12 1
    21    7    8 2
    22    8    9 1
    23    8   31 1
    24    9   10 1
    25    9   11 1
    26   11   12 2
    27   12   13 1
    28   13   18 2
    29   13   14 1
    30   14   15 2
    31   15   16 1
    32   16   17 1
    33   16   18 1
    34   18   32 1
@<TRIPOS>MOLECULE
CHEMBL178452
   32    34     0     0     0
SMALL
USER_CHARGES

@<TRIPOS>ATOM
      1 C1         -0.6785   -2.5346    0.9608 C.3       1 <0>        -0.1534
      2 C2          0.7599   -2.0303    1.0930 C.3       1 <0>        -0.0968
      3 C3          1.5846   -2.5230   -0.0979 C.3       1 <0>        -0.1500
      4 C4          0.7638   -0.5005    1.1180 C.3       1 <0>        -0.1164
      5 C5          0.0647   -0.0095    2.3873 C.3       1 <0>        -0.0232
      6 C6          0.8880   -0.4326    3.6042 C.3       1 <0>        -0.0244
      7 C7          0.4882    0.3431    4.8304 C.2       1 <0>        -0.2495
      8 C8          0.4944   -0.0116    6.1217 C.2       1 <0>         0.0733
      9 N1          0.0739    1.0502    6.8498 N.pl3     1 <0>        -0.4922
     10 H1         -0.0139    1.0784    7.8155 H         1 <0>         0.4412
     11 N2         -0.2135    2.1042    5.9651 N.2       1 <0>        -0.2760
     12 C9          0.0154    1.6875    4.7614 C.2       1 <0>         0.1673
     13 C10        -0.1452    2.3009    3.4221 C.2       1 <0>        -0.1796
     14 C11        -0.0970    1.4834    2.3104 C.2       1 <0>         0.1254
     15 N3         -0.2252    2.2770    1.2389 N.pl3     1 <0>        -0.4526
     16 N4         -0.4105    3.5949    1.6852 N.2       1 <0>        -0.2968
     17 H2         -0.1949    1.9900    0.3128 H         1 <0>         0.4403
     18 C12        -0.3688    3.6025    2.9971 C.2       1 <0>         0.0904
     19 H3         -1.1451   -2.0773    0.0883 H         1 <0>         0.0544
     20 H4         -0.6744   -3.6184    0.8445 H         1 <0>         0.0572
     21 H5         -1.2409   -2.2673    1.8554 H         1 <0>         0.0572
     22 H6          1.1945   -2.4099    2.0178 H         1 <0>         0.0778
     23 H7          1.1500   -2.1434   -1.0226 H         1 <0>         0.0541
     24 H8          2.6093   -2.1637   -0.0037 H         1 <0>         0.0555
     25 H9          1.5818   -3.6128   -0.1157 H         1 <0>         0.0569
     26 H10         1.7922   -0.1396    1.1069 H         1 <0>         0.0729
     27 H11         0.2362   -0.1215    0.2428 H         1 <0>         0.0624
     28 H12        -0.9217   -0.4692    2.4491 H         1 <0>         0.1008
     29 H13         0.7329   -1.4958    3.7880 H         1 <0>         0.0826
     30 H14         1.9441   -0.2572    3.3993 H         1 <0>         0.0743
     31 H15         0.7834   -0.9755    6.5137 H         1 <0>         0.1772
     32 H16        -0.4877    4.4677    3.6325 H         1 <0>         0.1898
@<TRIPOS>BOND
     1    1    2 1
     2    1   19 1
     3    1   20 1
     4    1   21 1
     5    2    3 1
     6    2    4 1
     7    2   22 1
     8    3   23 1
     9    3   24 1
    10    3   25 1
    11    4    5 1
    12    4   26 1
    13    4   27 1
    14    5    6 1
    15    5   28 1
    16    5   14 1
    17    6    7 1
    18    6   29 1
    19    6   30 1
    20    7   12 1
    21    7    8 2
    22    8    9 1
    23    8   31 1
    24    9   10 1
    25    9   11 1
    26   11   12 2
    27   12   13 1
    28   13   18 1
    29   13   14 2
    30   14   15 1
    31   15   16 1
    32   15   17 1
    33   16   18 2
    34   18   32 1
@<TRIPOS>MOLECULE
CHEMBL178452
   32    34     0     0     0
SMALL
USER_CHARGES

@<TRIPOS>ATOM
      1 C1         -0.0187    1.5258    0.0104 C.3       1 <0>        -0.1449
      2 C2          0.0021   -0.0041    0.0020 C.3       1 <0>        -0.1093
      3 C3          0.7421   -0.5109    1.2415 C.3       1 <0>        -0.1485
      4 C4         -1.4333   -0.5336    0.0129 C.3       1 <0>        -0.1056
      5 C5         -1.4157   -2.0577   -0.1212 C.3       1 <0>        -0.0094
      6 C6         -2.8365   -2.5927    0.0605 C.3       1 <0>        -0.0295
      7 C7         -2.9713   -4.0032   -0.4435 C.2       1 <0>        -0.2446
      8 C8         -3.7863   -5.0301    0.0085 C.2       1 <0>         0.0661
      9 N1         -3.5887   -6.0863   -0.7456 N.2       1 <0>        -0.2996
     10 H1         -2.2996   -6.3578   -2.4174 H         1 <0>         0.4382
     11 N2         -2.6271   -5.7680   -1.7204 N.pl3     1 <0>        -0.4593
     12 C9         -2.2459   -4.4993   -1.5107 C.2       1 <0>         0.1712
     13 C10        -1.2412   -3.6260   -2.1489 C.2       1 <0>        -0.1973
     14 C11        -0.8604   -2.4274   -1.4710 C.2       1 <0>         0.1195
     15 N3         -0.0060   -1.8110   -2.2238 N.2       1 <0>        -0.2665
     16 N4          0.2219   -2.5846   -3.3730 N.pl3     1 <0>        -0.4837
     17 H2          0.8211   -2.3572   -4.1011 H         1 <0>         0.4445
     18 C12        -0.5381   -3.7021   -3.2914 C.2       1 <0>         0.0948
     19 H3          1.0039    1.9031    0.0027 H         1 <0>         0.0519
     20 H4         -0.5459    1.8868   -0.8726 H         1 <0>         0.0519
     21 H5         -0.5289    1.8773    0.9072 H         1 <0>         0.0515
     22 H6          0.5123   -0.3556   -0.8948 H         1 <0>         0.0969
     23 H7          0.7568   -1.6008    1.2356 H         1 <0>         0.0527
     24 H8          1.7647   -0.1336    1.2338 H         1 <0>         0.0514
     25 H9          0.2319   -0.1594    2.1383 H         1 <0>         0.0529
     26 H10        -1.9156   -0.2570    0.9504 H         1 <0>         0.0714
     27 H11        -1.9862   -0.1019   -0.8214 H         1 <0>         0.0657
     28 H12        -0.7754   -2.4767    0.6551 H         1 <0>         0.0973
     29 H13        -3.0923   -2.5682    1.1198 H         1 <0>         0.0829
     30 H14        -3.5293   -1.9536   -0.4867 H         1 <0>         0.0717
     31 H15        -4.4698   -4.9708    0.8426 H         1 <0>         0.1845
     32 H16        -0.5725   -4.5064   -4.0114 H         1 <0>         0.1811
@<TRIPOS>BOND
     1    1    2 1
     2    1   19 1
     3    1   20 1
     4    1   21 1
     5    2    3 1
     6    2    4 1
     7    2   22 1
     8    3   23 1
     9    3   24 1
    10    3   25 1
    11    4    5 1
    12    4   26 1
    13    4   27 1
    14    5   14 1
    15    5    6 1
    16    5   28 1
    17    6   29 1
    18    6   30 1
    19    6    7 1
    20    7    8 1
    21    7   12 2
    22    8    9 2
    23    8   31 1
    24    9   11 1
    25   10   11 1
    26   11   12 1
    27   12   13 1
    28   13   18 2
    29   13   14 1
    30   14   15 2
    31   15   16 1
    32   16   17 1
    33   16   18 1
    34   18   32 1
@<TRIPOS>MOLECULE
CHEMBL181036
   38    40     0     0     0
SMALL
USER_CHARGES

@<TRIPOS>ATOM
      1 C1         -1.0524    1.3822   -0.5573 C.3       1 <0>        -0.1476
      2 C2         -0.7344   -0.1063   -0.4025 C.3       1 <0>        -0.1275
      3 C3          0.0481   -0.5905   -1.6249 C.3       1 <0>        -0.0849
      4 C4          0.3660   -2.0791   -1.4700 C.3       1 <0>         0.1477
      5 N1          1.1153   -2.5427   -2.6405 N.2       1 <0>        -1.1453
      6 S1          1.5955   -4.1243   -2.7430 S.o2      1 <0>         2.6388
      7 O1          2.5493   -4.3268   -1.7093 O.2       1 <0>        -1.0205
      8 O2          0.4112   -4.9022   -2.8499 O.2       1 <0>        -1.0317
      9 N2          2.4068   -4.2977   -4.1762 N.pl3     1 <0>        -0.6144
     10 C5          1.8016   -4.4810   -5.3867 C.ar      1 <0>         0.1659
     11 C6          2.8344   -4.5811   -6.3309 C.ar      1 <0>        -0.1456
     12 C7          2.5428   -4.7756   -7.6851 C.ar      1 <0>        -0.0008
     13 C8          1.2513   -4.8698   -8.1037 C.ar      1 <0>        -0.1556
     14 C9          0.1988   -4.7740   -7.1870 C.ar      1 <0>         0.1547
     15 C10         0.4652   -4.5788   -5.8218 C.ar      1 <0>        -0.1683
     16 C11        -0.7825   -4.5235   -5.1609 C.2       1 <0>         0.1088
     17 N3         -1.7287   -4.6714   -6.0436 N.2       1 <0>        -0.2771
     18 N4         -1.1650   -4.8304   -7.3151 N.pl3     1 <0>        -0.5034
     19 H1         -1.6543   -4.9575   -8.1429 H         1 <0>         0.4386
     20 C12         4.0649   -4.4377   -5.5418 C.2       1 <0>         0.0171
     21 N5          3.6850   -4.2716   -4.2925 N.2       1 <0>        -0.1810
     22 C13         5.4488   -4.4678   -6.0486 C.2       1 <0>         0.6194
     23 O3          5.6582   -4.6247   -7.2363 O.2       1 <0>        -0.5375
     24 N6          6.4821   -4.3213   -5.1958 N.am      1 <0>        -0.8400
     25 H2         -0.1229    1.9456   -0.6403 H         1 <0>         0.0507
     26 H3         -1.6509    1.5344   -1.4555 H         1 <0>         0.0509
     27 H4         -1.6098    1.7272    0.3135 H         1 <0>         0.0453
     28 H5         -0.1359   -0.2585    0.4957 H         1 <0>         0.0555
     29 H6         -1.6638   -0.6697   -0.3195 H         1 <0>         0.0559
     30 H7         -0.5505   -0.4384   -2.5230 H         1 <0>         0.0566
     31 H8          0.9775   -0.0272   -1.7079 H         1 <0>         0.0562
     32 H9          0.9646   -2.2313   -0.5719 H         1 <0>        -0.0009
     33 H10        -0.5634   -2.6425   -1.3870 H         1 <0>         0.0001
     34 H11         3.3468   -4.8510   -8.4022 H         1 <0>         0.1455
     35 H12         1.0373   -5.0192   -9.1516 H         1 <0>         0.1330
     36 H13        -0.9275   -4.3826   -4.1000 H         1 <0>         0.2236
     37 H14         6.3151   -4.1962   -4.2485 H         1 <0>         0.4120
     38 H15         7.3928   -4.3411   -5.5293 H         1 <0>         0.4057
@<TRIPOS>BOND
     1    1    2 1
     2    1   25 1
     3    1   26 1
     4    1   27 1
     5    2    3 1
     6    2   28 1
     7    2   29 1
     8    3    4 1
     9    3   30 1
    10    3   31 1
    11    4    5 1
    12    4   32 1
    13    4   33 1
    14    5    6 1
    15    6    7 2
    16    6    8 2
    17    6    9 1
    18    9   21 1
    19    9   10 1
    20   10   15 ar
    21   10   11 ar
    22   11   12 ar
    23   11   20 1
    24   12   13 ar
    25   12   34 1
    26   13   14 ar
    27   13   35 1
    28   14   18 1
    29   14   15 ar
    30   15   16 1
    31   16   17 2
    32   16   36 1
    33   17   18 1
    34   18   19 1
    35   20   21 2
    36   20   22 1
    37   22   23 2
    38   22   24 am
    39   24   37 1
    40   24   38 1
@<TRIPOS>MOLECULE
CHEMBL181036
   38    40     0     0     0
SMALL
USER_CHARGES

@<TRIPOS>ATOM
      1 C1         -0.9982    1.3964   -0.5284 C.3       1 <0>        -0.1478
      2 C2         -0.6958   -0.0962   -0.3819 C.3       1 <0>        -0.1273
      3 C3          0.0832   -0.5813   -1.6061 C.3       1 <0>        -0.0851
      4 C4          0.3856   -2.0740   -1.4596 C.3       1 <0>         0.1482
      5 N1          1.1315   -2.5385   -2.6318 N.2       1 <0>        -1.1461
      6 S1          1.5955   -4.1243   -2.7430 S.o2      1 <0>         2.6424
      7 O1          2.5458   -4.3427   -1.7093 O.2       1 <0>        -1.0202
      8 O2          0.4034   -4.8893   -2.8559 O.2       1 <0>        -1.0386
      9 N2          2.4068   -4.2977   -4.1762 N.pl3     1 <0>        -0.6053
     10 C5          1.8034   -4.4806   -5.3837 C.ar      1 <0>         0.1657
     11 C6          2.8272   -4.5811   -6.3299 C.ar      1 <0>        -0.1447
     12 C7          2.5552   -4.7762   -7.6959 C.ar      1 <0>        -0.0156
     13 C8          1.2957   -4.8770   -8.1717 C.ar      1 <0>        -0.1135
     14 C9          0.1578   -4.7847   -7.2624 C.ar      1 <0>         0.1318
     15 C10         0.4162   -4.5819   -5.8283 C.ar      1 <0>        -0.1999
     16 C11        -0.8139   -4.5326   -5.2115 C.2       1 <0>         0.1316
     17 N3         -1.7556   -4.6896   -6.1554 N.pl3     1 <0>        -0.4513
     18 N4         -1.1512   -4.8422   -7.4086 N.2       1 <0>        -0.3082
     19 H1         -2.7119   -4.6955   -5.9931 H         1 <0>         0.4429
     20 C12         4.0606   -4.4381   -5.5438 C.2       1 <0>         0.0178
     21 N5          3.6847   -4.2716   -4.2927 N.2       1 <0>        -0.1982
     22 C13         5.4433   -4.4688   -6.0549 C.2       1 <0>         0.6188
     23 O3          5.6490   -4.6259   -7.2431 O.2       1 <0>        -0.5363
     24 N6          6.4793   -4.3227   -5.2053 N.am      1 <0>        -0.8409
     25 H2         -0.0629    1.9506   -0.6070 H         1 <0>         0.0513
     26 H3         -1.5940    1.5600   -1.4264 H         1 <0>         0.0507
     27 H4         -1.5532    1.7420    0.3438 H         1 <0>         0.0456
     28 H5         -0.1000   -0.2598    0.5161 H         1 <0>         0.0559
     29 H6         -1.6311   -0.6504   -0.3033 H         1 <0>         0.0550
     30 H7         -0.5126   -0.4178   -2.5041 H         1 <0>         0.0559
     31 H8          1.0185   -0.0271   -1.6847 H         1 <0>         0.0571
     32 H9          0.9814   -2.2376   -0.5616 H         1 <0>        -0.0005
     33 H10        -0.5497   -2.6282   -1.3810 H         1 <0>        -0.0021
     34 H11         3.3816   -4.8474   -8.3875 H         1 <0>         0.1415
     35 H12         1.1298   -5.0259   -9.2285 H         1 <0>         0.1362
     36 H13        -0.9900   -4.3927   -4.1552 H         1 <0>         0.2166
     37 H14         6.3152   -4.1974   -4.2575 H         1 <0>         0.4115
     38 H15         7.3889   -4.3429   -5.5415 H         1 <0>         0.4051
@<TRIPOS>BOND
     1    1    2 1
     2    1   25 1
     3    1   26 1
     4    1   27 1
     5    2    3 1
     6    2   28 1
     7    2   29 1
     8    3    4 1
     9    3   30 1
    10    3   31 1
    11    4    5 1
    12    4   32 1
    13    4   33 1
    14    5    6 1
    15    6    7 2
    16    6    8 2
    17    6    9 1
    18    9   21 1
    19    9   10 1
    20   10   15 ar
    21   10   11 ar
    22   11   12 ar
    23   11   20 1
    24   12   13 ar
    25   12   34 1
    26   13   14 ar
    27   13   35 1
    28   14   15 ar
    29   14   18 2
    30   15   16 2
    31   16   36 1
    32   16   17 1
    33   17   19 1
    34   17   18 1
    35   20   21 2
    36   20   22 1
    37   22   23 2
    38   22   24 am
    39   24   37 1
    40   24   38 1
@<TRIPOS>MOLECULE
CHEMBL477063
   39    41     0     0     0
SMALL
USER_CHARGES

@<TRIPOS>ATOM
      1 C1          0.1692    0.9874   -0.6066 C.3       1 <0>         0.0171
      2 O1         -0.6985    1.6165   -1.5518 O.3       1 <0>        -0.2872
      3 C2         -1.9989    1.2150   -1.5594 C.2       1 <0>        -0.0212
      4 C3         -2.4279    0.2640   -0.6958 C.2       1 <0>         0.0154
      5 N1         -3.7251   -0.1401   -0.7004 N.pl3     1 <0>        -0.5640
      6 C4         -4.6275    0.3889   -1.5611 C.2       1 <0>         0.1465
      7 C5         -4.2622    1.3420   -2.4475 C.2       1 <0>        -0.2616
      8 C6         -2.9228    1.7913   -2.4677 C.2       1 <0>         0.3988
      9 O2         -2.5665    2.6559   -3.2557 O.2       1 <0>        -0.4953
     10 C7         -6.0557   -0.0912   -1.5304 C.3       1 <0>         0.1326
     11 N2         -6.1055   -1.5010   -1.9256 N.pl3     1 <0>        -0.6842
     12 C8         -7.2972   -2.1519   -1.9712 C.2       1 <0>         0.2913
     13 C9         -7.3336   -3.5045   -2.2285 C.2       1 <0>        -0.3337
     14 C10        -8.6145   -4.1966   -2.4819 C.ar      1 <0>         0.0625
     15 C11        -9.8272   -3.5178   -2.4721 C.ar      1 <0>        -0.1161
     16 C12       -10.9971   -4.2094   -2.7157 C.ar      1 <0>        -0.0516
     17 C13       -10.9697   -5.5739   -2.9690 C.ar      1 <0>        -0.1181
     18 C14        -9.7769   -6.2634   -2.9823 C.ar      1 <0>        -0.0249
     19 C15        -8.5830   -5.5830   -2.7394 C.ar      1 <0>        -0.1540
     20 C16        -7.2906   -6.2799   -2.7460 C.2       1 <0>         0.5717
     21 O3         -7.2570   -7.4755   -2.9678 O.2       1 <0>        -0.4993
     22 N3         -6.1449   -5.6196   -2.5115 N.am      1 <0>        -0.6631
     23 C17        -6.1011   -4.3002   -2.2651 C.2       1 <0>         0.5860
     24 O4         -5.0287   -3.7596   -2.0656 O.2       1 <0>        -0.5413
     25 I1        -12.8281   -3.1914   -2.7023 I         1 <0>        -0.0278
     26 H1          0.1951   -0.0858   -0.7955 H         1 <0>         0.0555
     27 H2          1.1739    1.3983   -0.7061 H         1 <0>         0.1060
     28 H3         -0.1996    1.1699    0.4028 H         1 <0>         0.0552
     29 H4         -1.7324   -0.1774    0.0026 H         1 <0>         0.1685
     30 H5         -4.9876    1.7585   -3.1306 H         1 <0>         0.1601
     31 H6         -4.0113   -0.8229   -0.0736 H         1 <0>         0.4227
     32 H7         -6.4540    0.0177   -0.5217 H         1 <0>         0.1030
     33 H8         -6.6532    0.5016   -2.2230 H         1 <0>         0.1153
     34 H9         -5.2878   -1.9697   -2.1546 H         1 <0>         0.4261
     35 H10        -8.2159   -1.6088   -1.8058 H         1 <0>         0.1687
     36 H11        -9.8543   -2.4563   -2.2749 H         1 <0>         0.1361
     37 H12       -11.8935   -6.1008   -3.1574 H         1 <0>         0.1390
     38 H13        -9.7659   -7.3250   -3.1804 H         1 <0>         0.1482
     39 H14        -5.3121   -6.1167   -2.5248 H         1 <0>         0.4174
@<TRIPOS>BOND
     1    1   26 1
     2    1   27 1
     3    1   28 1
     4    1    2 1
     5    2    3 1
     6    3    8 1
     7    3    4 2
     8    4    5 1
     9    4   29 1
    10    5   31 1
    11    5    6 1
    12    6   10 1
    13    6    7 2
    14    7   30 1
    15    7    8 1
    16    8    9 2
    17   10   11 1
    18   10   32 1
    19   10   33 1
    20   11   12 1
    21   11   34 1
    22   12   13 2
    23   12   35 1
    24   13   23 1
    25   13   14 1
    26   14   19 ar
    27   14   15 ar
    28   15   16 ar
    29   15   36 1
    30   16   17 ar
    31   16   25 1
    32   17   18 ar
    33   17   37 1
    34   18   19 ar
    35   18   38 1
    36   19   20 1
    37   20   21 2
    38   20   22 am
    39   22   23 am
    40   22   39 1
    41   23   24 2
@<TRIPOS>MOLECULE
CHEMBL477063
   39    41     0     0     0
SMALL
USER_CHARGES

@<TRIPOS>ATOM
      1 C1         -0.1246    0.6939    0.8431 C.3       1 <0>         0.0164
      2 O1         -0.7750    1.3658   -0.2375 O.3       1 <0>        -0.2852
      3 C2         -2.0630    1.0125   -0.4991 C.2       1 <0>        -0.0159
      4 C3         -2.6803    0.0677    0.2495 C.2       1 <0>         0.0153
      5 N1         -3.9659   -0.2884   -0.0086 N.pl3     1 <0>        -0.5696
      6 C4         -4.6698    0.2838   -1.0146 C.2       1 <0>         0.1376
      7 C5         -4.1105    1.2334   -1.7976 C.2       1 <0>        -0.2522
      8 C6         -2.7773    1.6333   -1.5551 C.2       1 <0>         0.3989
      9 O2         -2.2486    2.4936   -2.2449 O.2       1 <0>        -0.4901
     10 C7         -6.0931   -0.1437   -1.2644 C.3       1 <0>         0.1312
     11 N2         -6.1146   -1.5459   -1.6882 N.pl3     1 <0>        -0.6989
     12 C8         -7.2972   -2.1519   -1.9712 C.2       1 <0>         0.3083
     13 C9         -7.3336   -3.5045   -2.2285 C.2       1 <0>        -0.3406
     14 C10        -6.3217   -4.4158   -1.6544 C.ar      1 <0>         0.0600
     15 C11        -5.2987   -3.9508   -0.8366 C.ar      1 <0>        -0.1507
     16 C12        -4.3779   -4.8426   -0.3237 C.ar      1 <0>        -0.0474
     17 C13        -4.4670   -6.1959   -0.6191 C.ar      1 <0>        -0.1194
     18 C14        -5.4741   -6.6748   -1.4283 C.ar      1 <0>        -0.0183
     19 C15        -6.4155   -5.7903   -1.9562 C.ar      1 <0>        -0.1496
     20 C16        -7.5051   -6.2598   -2.8214 C.2       1 <0>         0.5716
     21 O3         -7.5915   -7.4442   -3.0849 O.2       1 <0>        -0.5002
     22 N3         -8.4082   -5.4036   -3.3264 N.am      1 <0>        -0.6640
     23 C17        -8.3820   -4.0845   -3.0758 C.2       1 <0>         0.5901
     24 O4         -9.2338   -3.3621   -3.5602 O.2       1 <0>        -0.5208
     25 I1         -2.8336   -4.1475    0.9095 I         1 <0>        -0.0338
     26 H1         -0.0996   -0.3772    0.6424 H         1 <0>         0.0550
     27 H2          0.8940    1.0686    0.9436 H         1 <0>         0.1070
     28 H3         -0.6723    0.8776    1.7674 H         1 <0>         0.0553
     29 H4         -2.1457   -0.4074    1.0587 H         1 <0>         0.1657
     30 H5         -4.6783    1.6845   -2.5980 H         1 <0>         0.1621
     31 H6         -4.3890   -0.9676    0.5396 H         1 <0>         0.4168
     32 H7         -6.6721   -0.0323   -0.3476 H         1 <0>         0.1073
     33 H8         -6.5276    0.4790   -2.0464 H         1 <0>         0.1223
     34 H9         -5.2846   -2.0416   -1.7668 H         1 <0>         0.4158
     35 H10        -8.2087   -1.5731   -1.9945 H         1 <0>         0.1767
     36 H11        -5.2243   -2.8988   -0.6042 H         1 <0>         0.1324
     37 H12        -3.7388   -6.8809   -0.2105 H         1 <0>         0.1406
     38 H13        -5.5350   -7.7296   -1.6524 H         1 <0>         0.1510
     39 H14        -9.1126   -5.7539   -3.8938 H         1 <0>         0.4194
@<TRIPOS>BOND
     1    1   26 1
     2    1   27 1
     3    1   28 1
     4    1    2 1
     5    2    3 1
     6    3    8 1
     7    3    4 2
     8    4    5 1
     9    4   29 1
    10    5   31 1
    11    5    6 1
    12    6   10 1
    13    6    7 2
    14    7   30 1
    15    7    8 1
    16    8    9 2
    17   10   11 1
    18   10   32 1
    19   10   33 1
    20   11   12 1
    21   11   34 1
    22   12   13 2
    23   12   35 1
    24   13   23 1
    25   13   14 1
    26   14   19 ar
    27   14   15 ar
    28   15   16 ar
    29   15   36 1
    30   16   17 ar
    31   16   25 1
    32   17   18 ar
    33   17   37 1
    34   18   19 ar
    35   18   38 1
    36   19   20 1
    37   20   21 2
    38   20   22 am
    39   22   23 am
    40   22   39 1
    41   23   24 2
@<TRIPOS>MOLECULE
CHEMBL187015
   39    42     0     0     0
SMALL
USER_CHARGES

@<TRIPOS>ATOM
      1 C1          1.8864   -2.2639    1.4480 C.ar      1 <0>        -0.1713
      2 C2          3.1276   -1.6946    1.4833 C.ar      1 <0>        -0.0560
      3 C3          3.3432   -0.5239    0.7319 C.ar      1 <0>        -0.0829
      4 C4          4.5927    0.1150    0.7201 C.ar      1 <0>        -0.0981
      5 C5          4.7618    1.2584   -0.0289 C.ar      1 <0>         0.1590
      6 C6          3.7004    1.7846   -0.7747 C.ar      1 <0>        -0.1159
      7 C7          2.4817    1.1834   -0.7783 C.ar      1 <0>        -0.0705
      8 C8          2.2725    0.0138   -0.0255 C.ar      1 <0>         0.1132
      9 N1          1.0820   -0.5940   -0.0168 N.ar      1 <0>        -0.4717
     10 C9          0.8775   -1.6839    0.6825 C.ar      1 <0>         0.1284
     11 N2          6.0050    1.8999   -0.0440 N.am      1 <0>        -0.6778
     12 C10         7.1382    1.1755    0.0434 C.2       1 <0>         0.6984
     13 O1          7.0852   -0.0392    0.0378 O.2       1 <0>        -0.5058
     14 N3          8.3302    1.7976    0.1370 N.am      1 <0>        -0.6269
     15 C11         9.4988    1.0505    0.2271 C.2       1 <0>         0.2776
     16 N4          9.6343   -0.2580    0.2303 N.2       1 <0>        -0.5139
     17 C12        10.8255   -0.8203    0.3229 C.2       1 <0>         0.0610
     18 C13        11.8932    0.0097    0.4139 C.2       1 <0>        -0.1942
     19 S1         11.0846    1.6003    0.3513 S.3       1 <0>         0.1198
     20 C14        13.3592   -0.3193    0.5301 C.3       1 <0>        -0.0209
     21 C15        14.1324    0.6320    1.4585 C.3       1 <0>        -0.1348
     22 C16        15.2768    0.5765    0.4328 C.3       1 <0>        -0.1424
     23 C17        14.2095    0.2408   -0.6223 C.3       1 <0>        -0.1335
     24 H1          1.6887   -3.1651    2.0095 H         1 <0>         0.1394
     25 H2          3.9215   -2.1305    2.0717 H         1 <0>         0.1395
     26 H3          5.4148   -0.2864    1.2940 H         1 <0>         0.1439
     27 H4          3.8523    2.6821   -1.3559 H         1 <0>         0.1358
     28 H5          1.6739    1.6034   -1.3593 H         1 <0>         0.1428
     29 H6         -0.0990   -2.1448    0.6639 H         1 <0>         0.1606
     30 H7          6.0515    2.8660   -0.1174 H         1 <0>         0.4107
     31 H8          8.3725    2.7666    0.1414 H         1 <0>         0.4236
     32 H9         10.9437   -1.8938    0.3264 H         1 <0>         0.1746
     33 H10        13.5413   -1.3745    0.7342 H         1 <0>         0.1166
     34 H11        13.6766    1.6178    1.5512 H         1 <0>         0.0816
     35 H12        14.3876    0.1904    2.4218 H         1 <0>         0.0753
     36 H13        15.7644    1.5376    0.2702 H         1 <0>         0.0721
     37 H14        15.9842   -0.2334    0.6112 H         1 <0>         0.0853
     38 H15        14.5270   -0.5166   -1.3389 H         1 <0>         0.0748
     39 H16        13.7748    1.1197   -1.0985 H         1 <0>         0.0824
@<TRIPOS>BOND
     1    1   10 ar
     2    1    2 ar
     3    1   24 1
     4    2    3 ar
     5    2   25 1
     6    3    8 ar
     7    3    4 ar
     8    4    5 ar
     9    4   26 1
    10    5    6 ar
    11    5   11 1
    12    6    7 ar
    13    6   27 1
    14    7    8 ar
    15    7   28 1
    16    8    9 ar
    17    9   10 ar
    18   10   29 1
    19   11   12 am
    20   11   30 1
    21   12   13 2
    22   12   14 am
    23   14   15 1
    24   14   31 1
    25   15   19 1
    26   15   16 2
    27   16   17 1
    28   17   18 2
    29   17   32 1
    30   18   19 1
    31   18   20 1
    32   20   23 1
    33   20   21 1
    34   20   33 1
    35   21   22 1
    36   21   34 1
    37   21   35 1
    38   22   23 1
    39   22   36 1
    40   22   37 1
    41   23   38 1
    42   23   39 1
@<TRIPOS>MOLECULE
CHEMBL203407
   47    50     0     0     0
SMALL
USER_CHARGES

@<TRIPOS>ATOM
      1 C1         -2.2683   -0.7436   -2.1540 C.ar      1 <0>        -0.1778
      2 C2         -2.8310   -0.0650   -3.2170 C.ar      1 <0>         0.0260
      3 C3         -2.8959    1.3163   -3.2012 C.ar      1 <0>        -0.7084
      4 C4         -2.3984    2.0227   -2.1214 C.ar      1 <0>         0.0232
      5 C5         -1.8344    1.3503   -1.0551 C.ar      1 <0>        -0.1829
      6 C6         -1.7676   -0.0372   -1.0677 C.ar      1 <0>         0.2494
      7 N1         -1.1979   -0.7209    0.0101 N.pl3     1 <0>        -0.6680
      8 C7         -1.2611   -2.0975    0.0645 C.2       1 <0>         0.4574
      9 C8         -0.1169   -2.8434    0.1385 C.2       1 <0>        -0.2317
     10 C9         -0.2158   -4.2389    0.1923 C.2       1 <0>         0.4328
     11 N2         -1.4008   -4.8246    0.1717 N.2       1 <0>        -0.5256
     12 C10        -2.5250   -4.1027    0.0994 C.2       1 <0>         0.4952
     13 N3         -2.4686   -2.7385    0.0510 N.pl3     1 <0>        -0.3587
     14 N4         -3.7941   -2.2892   -0.0111 N.2       1 <0>        -0.3290
     15 C11        -4.5611   -3.3511    0.0071 C.2       1 <0>         0.2585
     16 N5         -3.8085   -4.4439    0.0648 N.2       1 <0>        -0.5265
     17 O1          0.9075   -4.9922    0.2654 O.3       1 <0>        -0.2806
     18 C12         0.7357   -6.4099    0.3174 C.3       1 <0>         0.0844
     19 C13         0.6205   -6.8565    1.7762 C.3       1 <0>        -0.1342
     20 C14         0.4365   -8.3744    1.8319 C.3       1 <0>        -0.1159
     21 C15         1.6414   -9.0583    1.1828 C.3       1 <0>        -0.1250
     22 C16         1.7567   -8.6117   -0.2760 C.3       1 <0>        -0.1161
     23 C17         1.9406   -7.0938   -0.3316 C.3       1 <0>        -0.1169
     24 S1         -3.6135    2.1782   -4.5601 S.o2      1 <0>         2.7046
     25 O2         -3.0612    3.4874   -4.5480 O.2       1 <0>        -0.9641
     26 O3         -3.5103    1.3183   -5.6866 O.2       1 <0>        -0.9645
     27 N6         -5.2293    2.3432   -4.2370 N.pl3     1 <0>        -1.2504
     28 H1         -2.2217   -1.8225   -2.1652 H         1 <0>         0.1198
     29 H2         -3.2204   -0.6136   -4.0619 H         1 <0>         0.1458
     30 H3         -2.4506    3.1013   -2.1121 H         1 <0>         0.1501
     31 H4         -1.4454    1.9025   -0.2124 H         1 <0>         0.1405
     32 H5         -0.7580   -0.2272    0.7198 H         1 <0>         0.4323
     33 H6          0.8499   -2.3623    0.1549 H         1 <0>         0.1839
     34 H7         -5.6404   -3.3399   -0.0289 H         1 <0>         0.2330
     35 H8         -0.1717   -6.6859   -0.2198 H         1 <0>         0.0992
     36 H9          1.5278   -6.5806    2.3135 H         1 <0>         0.0716
     37 H10        -0.2380   -6.3693    2.2386 H         1 <0>         0.0691
     38 H11         0.3544   -8.6926    2.8712 H         1 <0>         0.0696
     39 H12        -0.4709   -8.6504    1.2947 H         1 <0>         0.0683
     40 H13         2.5488   -8.7824    1.7201 H         1 <0>         0.0651
     41 H14         1.5104  -10.1397    1.2225 H         1 <0>         0.0678
     42 H15         2.6151   -9.0989   -0.7384 H         1 <0>         0.0738
     43 H16         0.8493   -8.8877   -0.8132 H         1 <0>         0.0676
     44 H17         2.0228   -6.7757   -1.3709 H         1 <0>         0.0732
     45 H18         2.8480   -6.8179    0.2056 H         1 <0>         0.0758
     46 H19        -5.5981    1.9872   -3.4135 H         1 <0>         0.4171
     47 H20        -5.8070    2.7957   -4.8713 H         1 <0>         0.4212
@<TRIPOS>BOND
     1    1    6 ar
     2    1    2 ar
     3    1   28 1
     4    2    3 ar
     5    2   29 1
     6    3    4 ar
     7    3   24 1
     8    4    5 ar
     9    4   30 1
    10    5    6 ar
    11    5   31 1
    12    6    7 1
    13    7    8 1
    14    7   32 1
    15    8   13 1
    16    8    9 2
    17    9   10 1
    18    9   33 1
    19   10   11 2
    20   10   17 1
    21   11   12 1
    22   12   16 2
    23   12   13 1
    24   13   14 1
    25   14   15 2
    26   15   16 1
    27   15   34 1
    28   17   18 1
    29   18   23 1
    30   18   19 1
    31   18   35 1
    32   19   20 1
    33   19   36 1
    34   19   37 1
    35   20   21 1
    36   20   38 1
    37   20   39 1
    38   21   22 1
    39   21   40 1
    40   21   41 1
    41   22   23 1
    42   22   42 1
    43   22   43 1
    44   23   44 1
    45   23   45 1
    46   24   25 2
    47   24   26 2
    48   24   27 1
    49   27   46 1
    50   27   47 1
@<TRIPOS>MOLECULE
CHEMBL518383
   37    39     0     0     0
SMALL
USER_CHARGES

@<TRIPOS>ATOM
      1 C1         -0.0305    1.3526    0.0106 C.ar      1 <0>        -0.0376
      2 C2          1.1483    2.0759   -0.0018 C.ar      1 <0>        -0.1628
      3 C3          2.3654    1.4211   -0.0177 C.ar      1 <0>         0.1681
      4 C4          2.4027    0.0225   -0.0206 C.ar      1 <0>        -0.2046
      5 C5          1.2054   -0.7013   -0.0075 C.ar      1 <0>         0.1682
      6 C6         -0.0029   -0.0302    0.0078 C.ar      1 <0>        -0.1628
      7 F1          1.2301   -2.0520   -0.0107 F         1 <0>        -0.1191
      8 C7          3.6970   -0.6851   -0.0380 C.2       1 <0>         0.5712
      9 O1          4.2436   -0.9786    1.0079 O.2       1 <0>        -0.5044
     10 N1          4.2738   -1.0062   -1.2130 N.am      1 <0>        -0.6195
     11 C8          5.5046   -1.6791   -1.2295 C.2       1 <0>         0.0861
     12 C9          6.2381   -2.0814   -0.1577 C.2       1 <0>        -0.0199
     13 N2          7.3513   -2.6894   -0.6423 N.pl3     1 <0>        -0.3654
     14 H1          8.0548   -3.0750   -0.0971 H         1 <0>         0.4564
     15 N3          7.3384   -2.6806   -1.9266 N.2       1 <0>        -0.2358
     16 C10         6.2450   -2.0895   -2.3685 C.2       1 <0>        -0.0361
     17 C11         5.8654   -1.8899   -3.7795 C.2       1 <0>         0.6143
     18 O2          4.8252   -1.3235   -4.0550 O.2       1 <0>        -0.5194
     19 N4          6.6714   -2.3352   -4.7637 N.am      1 <0>        -0.6564
     20 C12         6.2669   -2.2328   -6.0996 C.ar      1 <0>         0.1320
     21 C13         6.6100   -3.2255   -7.0080 C.ar      1 <0>        -0.1115
     22 C14         6.2094   -3.1228   -8.3258 C.ar      1 <0>        -0.1342
     23 C15         5.4665   -2.0306   -8.7415 C.ar      1 <0>         0.0863
     24 C16         5.1237   -1.0393   -7.8374 C.ar      1 <0>        -0.1344
     25 C17         5.5170   -1.1412   -6.5174 C.ar      1 <0>        -0.0908
     26 F2          5.0760   -1.9318  -10.0310 F         1 <0>        -0.1385
     27 F3          3.5157    2.1295   -0.0307 F         1 <0>        -0.1192
     28 H2         -0.9780    1.8706    0.0271 H         1 <0>         0.1532
     29 H3          1.1177    3.1554    0.0005 H         1 <0>         0.1535
     30 H4         -0.9281   -0.5873    0.0179 H         1 <0>         0.1535
     31 H5          3.8378   -0.7721   -2.0473 H         1 <0>         0.4280
     32 H6          5.9834   -1.9432    0.8828 H         1 <0>         0.2109
     33 H7          7.5318   -2.7267   -4.5461 H         1 <0>         0.4208
     34 H8          7.1900   -4.0772   -6.6844 H         1 <0>         0.1380
     35 H9          6.4760   -3.8946   -9.0326 H         1 <0>         0.1412
     36 H10         4.5448   -0.1880   -8.1638 H         1 <0>         0.1405
     37 H11         5.2452   -0.3703   -5.8115 H         1 <0>         0.1502
@<TRIPOS>BOND
     1    1    6 ar
     2    1    2 ar
     3    1   28 1
     4    2    3 ar
     5    2   29 1
     6    3    4 ar
     7    3   27 1
     8    4    5 ar
     9    4    8 1
    10    5    6 ar
    11    5    7 1
    12    6   30 1
    13    8    9 2
    14    8   10 am
    15   10   11 1
    16   10   31 1
    17   11   16 1
    18   11   12 2
    19   12   13 1
    20   12   32 1
    21   13   14 1
    22   13   15 1
    23   15   16 2
    24   16   17 1
    25   17   18 2
    26   17   19 am
    27   19   20 1
    28   19   33 1
    29   20   25 ar
    30   20   21 ar
    31   21   22 ar
    32   21   34 1
    33   22   23 ar
    34   22   35 1
    35   23   24 ar
    36   23   26 1
    37   24   25 ar
    38   24   36 1
    39   25   37 1
@<TRIPOS>MOLECULE
CHEMBL518383
   37    39     0     0     0
SMALL
USER_CHARGES

@<TRIPOS>ATOM
      1 C1         -0.0303    1.3528    0.0108 C.ar      1 <0>        -0.0370
      2 C2          1.1485    2.0761   -0.0017 C.ar      1 <0>        -0.1627
      3 C3          2.3656    1.4213   -0.0171 C.ar      1 <0>         0.1688
      4 C4          2.4029    0.0226   -0.0200 C.ar      1 <0>        -0.2064
      5 C5          1.2055   -0.7011   -0.0072 C.ar      1 <0>         0.1689
      6 C6         -0.0028   -0.0300    0.0080 C.ar      1 <0>        -0.1627
      7 F1          1.2302   -2.0519   -0.0103 F         1 <0>        -0.1187
      8 C7          3.6971   -0.6849   -0.0368 C.2       1 <0>         0.5741
      9 O1          4.2432   -0.9783    1.0092 O.2       1 <0>        -0.4913
     10 N1          4.2743   -1.0061   -1.2116 N.am      1 <0>        -0.6216
     11 C8          5.4989   -1.6756   -1.2275 C.2       1 <0>         0.1313
     12 C9          6.2607   -2.0871   -0.1223 C.2       1 <0>         0.0047
     13 N2          7.3362   -2.6775   -0.5732 N.2       1 <0>        -0.2356
     14 H1          8.0576   -3.0806   -2.4010 H         1 <0>         0.4492
     15 N3          7.3541   -2.6933   -1.8570 N.pl3     1 <0>        -0.3731
     16 C10         6.2250   -2.0843   -2.3426 C.2       1 <0>        -0.0906
     17 C11         5.8590   -1.8989   -3.7495 C.2       1 <0>         0.6034
     18 O2          4.8205   -1.3339   -4.0388 O.2       1 <0>        -0.5117
     19 N4          6.6725   -2.3539   -4.7231 N.am      1 <0>        -0.6669
     20 C12         6.2787   -2.2638   -6.0630 C.ar      1 <0>         0.1291
     21 C13         6.6282   -3.2652   -6.9593 C.ar      1 <0>        -0.1110
     22 C14         6.2381   -3.1745   -8.2811 C.ar      1 <0>        -0.1341
     23 C15         5.4990   -2.0860   -8.7127 C.ar      1 <0>         0.0900
     24 C16         5.1498   -1.0860   -7.8207 C.ar      1 <0>        -0.1341
     25 C17         5.5329   -1.1756   -6.4968 C.ar      1 <0>        -0.0884
     26 F2          5.1185   -1.9992  -10.0061 F         1 <0>        -0.1370
     27 F3          3.5159    2.1297   -0.0298 F         1 <0>        -0.1188
     28 H2         -0.9779    1.8708    0.0273 H         1 <0>         0.1534
     29 H3          1.1178    3.1557    0.0001 H         1 <0>         0.1538
     30 H4         -0.9280   -0.5870    0.0182 H         1 <0>         0.1538
     31 H5          3.8386   -0.7720   -2.0460 H         1 <0>         0.4270
     32 H6          6.0039   -1.9412    0.9165 H         1 <0>         0.2125
     33 H7          7.5308   -2.7439   -4.4950 H         1 <0>         0.4092
     34 H8          7.2049   -4.1142   -6.6231 H         1 <0>         0.1376
     35 H9          6.5101   -3.9530   -8.9786 H         1 <0>         0.1423
     36 H10         4.5736   -0.2377   -8.1595 H         1 <0>         0.1418
     37 H11         5.2565   -0.3977   -5.8005 H         1 <0>         0.1505
@<TRIPOS>BOND
     1    1    6 ar
     2    1    2 ar
     3    1   28 1
     4    2    3 ar
     5    2   29 1
     6    3    4 ar
     7    3   27 1
     8    4    5 ar
     9    4    8 1
    10    5    6 ar
    11    5    7 1
    12    6   30 1
    13    8    9 2
    14    8   10 am
    15   10   31 1
    16   10   11 1
    17   11   12 1
    18   11   16 2
    19   12   13 2
    20   12   32 1
    21   13   15 1
    22   14   15 1
    23   15   16 1
    24   16   17 1
    25   17   18 2
    26   17   19 am
    27   19   20 1
    28   19   33 1
    29   20   25 ar
    30   20   21 ar
    31   21   22 ar
    32   21   34 1
    33   22   23 ar
    34   22   35 1
    35   23   24 ar
    36   23   26 1
    37   24   25 ar
    38   24   36 1
    39   25   37 1
@<TRIPOS>MOLECULE
CHEMBL182419
   39    42     0     0     0
SMALL
USER_CHARGES

@<TRIPOS>ATOM
      1 C1         -0.0167    1.3789    0.0096 C.ar      1 <0>        -0.1662
      2 C2          1.1807    2.0727    0.0019 C.ar      1 <0>        -0.0505
      3 C3          2.3726    1.3389   -0.0134 C.ar      1 <0>        -0.0816
      4 C4          2.3057   -0.0556   -0.0203 C.ar      1 <0>         0.1320
      5 N1          1.1411   -0.6699   -0.0124 N.ar      1 <0>        -0.4762
      6 C5          0.0021   -0.0041    0.0020 C.ar      1 <0>         0.1118
      7 C6          3.6797    2.0285   -0.0227 C.2       1 <0>         0.0828
      8 C7          4.8864    1.4117   -0.0430 C.2       1 <0>        -0.1548
      9 C8          5.8839    2.4790   -0.0455 C.ar      1 <0>        -0.2685
     10 C9          7.2850    2.5351   -0.0621 C.ar      1 <0>         0.4675
     11 N2          7.8677    3.7300   -0.0584 N.ar      1 <0>        -0.5220
     12 C10         7.1474    4.8365   -0.0396 C.ar      1 <0>         0.3637
     13 N3          5.8312    4.8297   -0.0236 N.ar      1 <0>        -0.5262
     14 C11         5.1567    3.6839   -0.0257 C.ar      1 <0>         0.3277
     15 O1          3.8510    3.3664   -0.0181 O.3       1 <0>        -0.1698
     16 N4          8.0439    1.3731   -0.0814 N.am      1 <0>        -0.6498
     17 C12         9.3895    1.4472   -0.0972 C.2       1 <0>         0.5092
     18 O2          9.9373    2.5291   -0.0945 O.2       1 <0>        -0.4542
     19 C13        10.2135    0.1855   -0.1182 C.3       1 <0>        -0.1108
     20 C14         9.9641   -0.6299    1.1674 C.3       1 <0>        -0.1189
     21 C15        11.3500   -1.2299    1.5115 C.3       1 <0>        -0.1238
     22 C16        12.3209   -0.0806    1.1434 C.3       1 <0>        -0.1257
     23 C17        11.7120    0.5348   -0.1334 C.3       1 <0>        -0.1202
     24 H1         -0.9559    1.9117    0.0259 H         1 <0>         0.1454
     25 H2          1.1951    3.1526    0.0072 H         1 <0>         0.1443
     26 H3          3.2168   -0.6353   -0.0324 H         1 <0>         0.1634
     27 H4         -0.9310   -0.5479    0.0080 H         1 <0>         0.1645
     28 H5          5.0726    0.3480   -0.0543 H         1 <0>         0.1704
     29 H6          7.6598    5.7872   -0.0369 H         1 <0>         0.2177
     30 H7          7.6058    0.5077   -0.0836 H         1 <0>         0.4222
     31 H8          9.9602   -0.4110   -0.9946 H         1 <0>         0.1050
     32 H9          9.6199    0.0209    1.9712 H         1 <0>         0.0708
     33 H10         9.2404   -1.4235    0.9814 H         1 <0>         0.0763
     34 H11        11.4158   -1.4659    2.5736 H         1 <0>         0.0714
     35 H12        11.5497   -2.1134    0.9052 H         1 <0>         0.0722
     36 H13        12.3574    0.6589    1.9434 H         1 <0>         0.0677
     37 H14        13.3172   -0.4733    0.9400 H         1 <0>         0.0703
     38 H15        12.1861    0.1071   -1.0168 H         1 <0>         0.0722
     39 H16        11.8433    1.6168   -0.1256 H         1 <0>         0.0911
@<TRIPOS>BOND
     1    1    6 ar
     2    1    2 ar
     3    1   24 1
     4    2    3 ar
     5    2   25 1
     6    3    4 ar
     7    3    7 1
     8    4    5 ar
     9    4   26 1
    10    5    6 ar
    11    6   27 1
    12    7   15 1
    13    7    8 2
    14    8    9 1
    15    8   28 1
    16    9   14 ar
    17    9   10 ar
    18   10   11 ar
    19   10   16 1
    20   11   12 ar
    21   12   13 ar
    22   12   29 1
    23   13   14 ar
    24   14   15 1
    25   16   17 am
    26   16   30 1
    27   17   18 2
    28   17   19 1
    29   19   23 1
    30   19   20 1
    31   19   31 1
    32   20   21 1
    33   20   32 1
    34   20   33 1
    35   21   22 1
    36   21   34 1
    37   21   35 1
    38   22   23 1
    39   22   36 1
    40   22   37 1
    41   23   38 1
    42   23   39 1
@<TRIPOS>MOLECULE
CHEMBL343996
   50    53     0     0     0
SMALL
USER_CHARGES

@<TRIPOS>ATOM
      1 C1         -0.0169    1.3926    0.0097 C.ar      1 <0>        -0.1596
      2 C2          1.1701    2.0952    0.0021 C.ar      1 <0>         0.0012
      3 C3          2.3776    1.4196   -0.0135 C.ar      1 <0>        -0.7266
      4 C4          2.4039    0.0362   -0.0212 C.ar      1 <0>         0.0027
      5 C5          1.2248   -0.6794   -0.0133 C.ar      1 <0>        -0.2120
      6 C6          0.0021   -0.0041    0.0020 C.ar      1 <0>         0.2098
      7 N1         -1.1715   -0.7074    0.0099 N.2       1 <0>        -0.5543
      8 C7         -1.3288   -1.7274   -0.7959 C.2       1 <0>         0.2971
      9 C8         -2.5441   -2.4557   -0.7877 C.2       1 <0>        -0.3529
     10 C9         -2.8793   -3.6262   -1.6221 C.ar      1 <0>         0.0137
     11 C10        -4.1834   -3.9978   -1.2596 C.ar      1 <0>         0.1036
     12 C11        -4.7758   -5.0906   -1.8928 C.ar      1 <0>        -0.1030
     13 C12        -4.1207   -5.8000   -2.8480 C.ar      1 <0>        -0.0803
     14 C13        -2.8055   -5.4575   -3.2414 C.ar      1 <0>         0.0493
     15 C14        -2.2145   -4.3517   -2.5969 C.ar      1 <0>        -0.1296
     16 S1         -0.6206   -4.2805   -3.3715 S.3       1 <0>         0.0582
     17 C15        -0.8043   -5.5931   -4.4088 C.2       1 <0>         0.0420
     18 N2         -2.0025   -6.0345   -4.1599 N.2       1 <0>        -0.5026
     19 N3         -4.6177   -3.1251   -0.2790 N.pl3     1 <0>        -0.6236
     20 H1         -5.4887   -3.1608    0.1464 H         1 <0>         0.4034
     21 C16        -3.6518   -2.2141    0.0096 C.2       1 <0>         0.4926
     22 O1         -3.7559   -1.2261    0.9273 O.3       1 <0>        -0.6322
     23 S2          3.8890    2.3254   -0.0242 S.o2      1 <0>         2.7007
     24 O2          4.8718    1.4688   -0.5893 O.2       1 <0>        -0.9689
     25 O3          3.5916    3.6051   -0.5656 O.2       1 <0>        -0.9686
     26 N4          4.3249    2.5692    1.5547 N.pl3     1 <0>        -1.1158
     27 C17         4.6711    1.4266    2.4038 C.3       1 <0>         0.1199
     28 C18         5.3824    1.9244    3.6636 C.3       1 <0>         0.0552
     29 O4          4.4789    2.7129    4.4407 O.3       1 <0>        -0.3752
     30 C19         5.0470    3.2294    5.6459 C.3       1 <0>         0.0609
     31 C20         3.9960    4.0529    6.3930 C.3       1 <0>         0.0768
     32 O5          2.9311    3.1976    6.8133 O.3       1 <0>        -0.5650
     33 H2         -0.9586    1.9211    0.0260 H         1 <0>         0.1301
     34 H3          1.1570    3.1751    0.0081 H         1 <0>         0.1316
     35 H4          3.3500   -0.4846   -0.0337 H         1 <0>         0.1289
     36 H5          1.2468   -1.7591   -0.0197 H         1 <0>         0.1230
     37 H6         -0.5323   -2.0136   -1.4668 H         1 <0>         0.0785
     38 H7         -5.7791   -5.3796   -1.6166 H         1 <0>         0.1239
     39 H8         -4.6123   -6.6405   -3.3151 H         1 <0>         0.1260
     40 H9         -0.0895   -5.9812   -5.1193 H         1 <0>         0.2129
     41 H10         4.3511    3.4684    1.9173 H         1 <0>         0.4190
     42 H11         3.7622    0.8950    2.6857 H         1 <0>         0.0780
     43 H12         5.3306    0.7535    1.8560 H         1 <0>         0.0943
     44 H13         5.7185    1.0708    4.2523 H         1 <0>         0.0650
     45 H14         6.2423    2.5311    3.3796 H         1 <0>         0.0581
     46 H15         5.3761    2.4030    6.2757 H         1 <0>         0.0566
     47 H16         5.8999    3.8632    5.4030 H         1 <0>         0.0630
     48 H17         4.4531    4.5196    7.2656 H         1 <0>         0.0591
     49 H18         3.6024    4.8252    5.7322 H         1 <0>         0.0553
     50 H19         2.2272    3.6534    7.2947 H         1 <0>         0.3801
@<TRIPOS>BOND
     1    1    6 ar
     2    1    2 ar
     3    1   33 1
     4    2    3 ar
     5    2   34 1
     6    3    4 ar
     7    3   23 1
     8    4    5 ar
     9    4   35 1
    10    5    6 ar
    11    5   36 1
    12    6    7 1
    13    7    8 2
    14    8    9 1
    15    8   37 1
    16    9   21 2
    17    9   10 1
    18   10   15 ar
    19   10   11 ar
    20   11   12 ar
    21   11   19 1
    22   12   13 ar
    23   12   38 1
    24   13   14 ar
    25   13   39 1
    26   14   18 1
    27   14   15 ar
    28   15   16 1
    29   16   17 1
    30   17   18 2
    31   17   40 1
    32   19   20 1
    33   19   21 1
    34   21   22 1
    35   23   24 2
    36   23   25 2
    37   23   26 1
    38   26   27 1
    39   26   41 1
    40   27   28 1
    41   27   42 1
    42   27   43 1
    43   28   29 1
    44   28   44 1
    45   28   45 1
    46   29   30 1
    47   30   31 1
    48   30   46 1
    49   30   47 1
    50   31   32 1
    51   31   48 1
    52   31   49 1
    53   32   50 1
@<TRIPOS>MOLECULE
CHEMBL343996
   51    54     0     0     0
SMALL
USER_CHARGES

@<TRIPOS>ATOM
      1 C1         -0.0169    1.3926    0.0097 C.ar      1 <0>        -0.1325
      2 C2          1.1701    2.0952    0.0021 C.ar      1 <0>        -0.0012
      3 C3          2.3776    1.4196   -0.0135 C.ar      1 <0>        -0.6937
      4 C4          2.4039    0.0362   -0.0212 C.ar      1 <0>        -0.0017
      5 C5          1.2248   -0.6794   -0.0133 C.ar      1 <0>        -0.1805
      6 C6          0.0021   -0.0041    0.0020 C.ar      1 <0>         0.1568
      7 N1         -1.1715   -0.7074    0.0099 N.2       1 <0>        -0.5025
      8 C7         -1.3288   -1.7274   -0.7959 C.2       1 <0>         0.2588
      9 C8         -2.5441   -2.4557   -0.7877 C.2       1 <0>        -0.1883
     10 C9         -2.8793   -3.6262   -1.6221 C.ar      1 <0>        -0.0158
     11 C10        -4.1834   -3.9978   -1.2596 C.ar      1 <0>         0.1091
     12 C11        -4.7758   -5.0906   -1.8928 C.ar      1 <0>        -0.0962
     13 C12        -4.1207   -5.8000   -2.8480 C.ar      1 <0>        -0.0419
     14 C13        -2.8055   -5.4575   -3.2414 C.ar      1 <0>         0.0737
     15 C14        -2.2145   -4.3517   -2.5969 C.ar      1 <0>        -0.1299
     16 S1         -0.6206   -4.2805   -3.3715 S.3       1 <0>         0.1007
     17 C15        -0.8043   -5.5931   -4.4088 C.2       1 <0>         0.0690
     18 N2         -2.0025   -6.0345   -4.1599 N.2       1 <0>        -0.5029
     19 N3         -4.6177   -3.1251   -0.2790 N.pl3     1 <0>        -0.5715
     20 H1         -5.4887   -3.1608    0.1464 H         1 <0>         0.4247
     21 C16        -3.6518   -2.2141    0.0096 C.2       1 <0>         0.3509
     22 O1         -3.7559   -1.2261    0.9273 O.3       1 <0>        -0.4404
     23 S2          3.8890    2.3254   -0.0242 S.o2      1 <0>         2.6973
     24 O2          4.8718    1.4688   -0.5893 O.2       1 <0>        -0.9577
     25 O3          3.5916    3.6051   -0.5656 O.2       1 <0>        -0.9582
     26 N4          4.3249    2.5692    1.5547 N.pl3     1 <0>        -1.1124
     27 C17         4.6711    1.4266    2.4038 C.3       1 <0>         0.1195
     28 C18         5.3824    1.9244    3.6636 C.3       1 <0>         0.0533
     29 O4          4.4789    2.7129    4.4407 O.3       1 <0>        -0.3781
     30 C19         5.0470    3.2294    5.6459 C.3       1 <0>         0.0609
     31 C20         3.9960    4.0529    6.3930 C.3       1 <0>         0.0766
     32 O5          2.9311    3.1976    6.8133 O.3       1 <0>        -0.5671
     33 H2         -0.9586    1.9211    0.0260 H         1 <0>         0.1371
     34 H3          1.1570    3.1751    0.0081 H         1 <0>         0.1435
     35 H4          3.3500   -0.4846   -0.0337 H         1 <0>         0.1413
     36 H5          1.2468   -1.7591   -0.0197 H         1 <0>         0.1314
     37 H6         -0.5323   -2.0136   -1.4668 H         1 <0>         0.1081
     38 H7         -5.7791   -5.3796   -1.6166 H         1 <0>         0.1396
     39 H8         -4.6123   -6.6405   -3.3151 H         1 <0>         0.1437
     40 H9         -0.0895   -5.9812   -5.1193 H         1 <0>         0.2249
     41 H10        -4.1134   -0.3991    0.5761 H         1 <0>         0.4073
     42 H11         4.3511    3.4684    1.9173 H         1 <0>         0.4229
     43 H12         3.7622    0.8950    2.6857 H         1 <0>         0.0760
     44 H13         5.3306    0.7535    1.8560 H         1 <0>         0.0960
     45 H14         5.7185    1.0708    4.2523 H         1 <0>         0.0672
     46 H15         6.2423    2.5311    3.3796 H         1 <0>         0.0610
     47 H16         5.3761    2.4030    6.2757 H         1 <0>         0.0582
     48 H17         5.8999    3.8632    5.4030 H         1 <0>         0.0653
     49 H18         4.4531    4.5196    7.2656 H         1 <0>         0.0617
     50 H19         3.6024    4.8252    5.7322 H         1 <0>         0.0553
     51 H20         2.2272    3.6534    7.2947 H         1 <0>         0.3806
@<TRIPOS>BOND
     1    1    6 ar
     2    1    2 ar
     3    1   33 1
     4    2    3 ar
     5    2   34 1
     6    3    4 ar
     7    3   23 1
     8    4    5 ar
     9    4   35 1
    10    5    6 ar
    11    5   36 1
    12    6    7 1
    13    7    8 2
    14    8    9 1
    15    8   37 1
    16    9   21 2
    17    9   10 1
    18   10   15 ar
    19   10   11 ar
    20   11   12 ar
    21   11   19 1
    22   12   13 ar
    23   12   38 1
    24   13   14 ar
    25   13   39 1
    26   14   18 1
    27   14   15 ar
    28   15   16 1
    29   16   17 1
    30   17   18 2
    31   17   40 1
    32   19   20 1
    33   19   21 1
    34   21   22 1
    35   22   41 1
    36   23   24 2
    37   23   25 2
    38   23   26 1
    39   26   27 1
    40   26   42 1
    41   27   28 1
    42   27   43 1
    43   27   44 1
    44   28   29 1
    45   28   45 1
    46   28   46 1
    47   29   30 1
    48   30   31 1
    49   30   47 1
    50   30   48 1
    51   31   32 1
    52   31   49 1
    53   31   50 1
    54   32   51 1
@<TRIPOS>MOLECULE
CHEMBL411887
   44    47     0     0     0
SMALL
USER_CHARGES

@<TRIPOS>ATOM
      1 C1         -0.4527    1.6627   -0.4866 C.3       1 <0>        -0.1477
      2 C2         -0.1119    0.2450   -0.1056 C.2       1 <0>         0.2560
      3 C3          0.1853   -0.0605    1.1910 C.2       1 <0>        -0.2067
      4 C4          0.0936    0.8312    2.3714 C.ar      1 <0>        -0.0893
      5 C5         -0.2910    2.1548    2.5338 C.ar      1 <0>        -0.0499
      6 C6         -0.2698    2.7273    3.8045 C.ar      1 <0>        -0.0362
      7 C7          0.1381    1.9647    4.9028 C.ar      1 <0>        -0.0565
      8 C8          0.5190    0.6521    4.7385 C.ar      1 <0>        -0.1291
      9 C9          0.5022    0.0684    3.4742 C.ar      1 <0>         0.1582
     10 N1          0.8316   -1.2114    3.0452 N.am      1 <0>        -0.6523
     11 C10         0.6588   -1.3447    1.7195 C.2       1 <0>         0.5625
     12 O1          0.8631   -2.3546    1.0691 O.2       1 <0>        -0.4994
     13 C11        -0.6767    4.1364    3.9900 C.2       1 <0>         0.0010
     14 C12        -0.7010    4.8243    5.1604 C.2       1 <0>        -0.0222
     15 N2         -1.1293    6.0666    4.8898 N.2       1 <0>        -0.4847
     16 C13        -1.3653    6.1629    3.6115 C.2       1 <0>         0.1772
     17 O2         -1.0902    4.9887    3.0266 O.3       1 <0>        -0.2006
     18 N3         -0.1005   -0.7311   -1.0549 N.pl3     1 <0>        -0.6725
     19 C14         0.7845   -0.6469   -2.1331 C.ar      1 <0>         0.2553
     20 C15         1.7664    0.3357   -2.1528 C.ar      1 <0>        -0.2010
     21 C16         2.6396    0.4158   -3.2196 C.ar      1 <0>         0.0219
     22 C17         2.5376   -0.4807   -4.2676 C.ar      1 <0>        -0.7198
     23 C18         1.5614   -1.4601   -4.2512 C.ar      1 <0>         0.0265
     24 C19         0.6882   -1.5492   -3.1850 C.ar      1 <0>        -0.1927
     25 S1          3.6535   -0.3745   -5.6270 S.o2      1 <0>         2.7050
     26 O3          3.0038   -0.9836   -6.7343 O.2       1 <0>        -0.9655
     27 O4          4.1238    0.9659   -5.6626 O.2       1 <0>        -0.9639
     28 N4          4.9599   -1.3250   -5.2634 N.pl3     1 <0>        -1.2495
     29 H1          0.3598    2.3247   -0.1872 H         1 <0>         0.0942
     30 H2         -0.5934    1.7251   -1.5656 H         1 <0>         0.0844
     31 H3         -1.3711    1.9636    0.0176 H         1 <0>         0.0973
     32 H4         -0.6046    2.7379    1.6805 H         1 <0>         0.1379
     33 H5          0.1548    2.4085    5.8872 H         1 <0>         0.1408
     34 H6          0.8322    0.0722    5.5940 H         1 <0>         0.1388
     35 H7          1.1429   -1.9203    3.6296 H         1 <0>         0.4203
     36 H8         -0.4260    4.4411    6.1319 H         1 <0>         0.1868
     37 H9         -1.7215    7.0475    3.1047 H         1 <0>         0.2529
     38 H10        -0.7067   -1.4849   -0.9828 H         1 <0>         0.4222
     39 H11         1.8464    1.0364   -1.3348 H         1 <0>         0.1337
     40 H12         3.4029    1.1797   -3.2357 H         1 <0>         0.1453
     41 H13         1.4842   -2.1585   -5.0714 H         1 <0>         0.1461
     42 H14        -0.0711   -2.3171   -3.1708 H         1 <0>         0.1368
     43 H15         5.4583   -1.7570   -5.9747 H         1 <0>         0.4212
     44 H16         5.2268   -1.4497   -4.3392 H         1 <0>         0.4169
@<TRIPOS>BOND
     1    1    2 1
     2    1   29 1
     3    1   30 1
     4    1   31 1
     5    2    3 2
     6    2   18 1
     7    3   11 1
     8    3    4 1
     9    4    9 ar
    10    4    5 ar
    11    5    6 ar
    12    5   32 1
    13    6    7 ar
    14    6   13 1
    15    7    8 ar
    16    7   33 1
    17    8    9 ar
    18    8   34 1
    19    9   10 1
    20   10   11 am
    21   10   35 1
    22   11   12 2
    23   13   17 1
    24   13   14 2
    25   14   15 1
    26   14   36 1
    27   15   16 2
    28   16   17 1
    29   16   37 1
    30   18   19 1
    31   18   38 1
    32   19   24 ar
    33   19   20 ar
    34   20   21 ar
    35   20   39 1
    36   21   22 ar
    37   21   40 1
    38   22   23 ar
    39   22   25 1
    40   23   24 ar
    41   23   41 1
    42   24   42 1
    43   25   26 2
    44   25   27 2
    45   25   28 1
    46   28   43 1
    47   28   44 1
@<TRIPOS>MOLECULE
CHEMBL411887
   44    47     0     0     0
SMALL
USER_CHARGES

@<TRIPOS>ATOM
      1 C1          0.2101    1.4685   -0.0048 C.3       1 <0>        -0.1507
      2 C2          0.0582   -0.0303   -0.0460 C.2       1 <0>         0.2576
      3 C3          0.0586   -0.7484    1.1146 C.2       1 <0>        -0.2097
      4 C4          0.0029   -2.2222    1.2632 C.ar      1 <0>        -0.0930
      5 C5         -0.0622   -3.2665    0.3515 C.ar      1 <0>        -0.0482
      6 C6         -0.1036   -4.5814    0.8121 C.ar      1 <0>        -0.0352
      7 C7         -0.0791   -4.8367    2.1864 C.ar      1 <0>        -0.0578
      8 C8         -0.0145   -3.7986    3.0881 C.ar      1 <0>        -0.1276
      9 C9          0.0274   -2.4805    2.6407 C.ar      1 <0>         0.1571
     10 N1          0.0934   -1.2751    3.3286 N.am      1 <0>        -0.6501
     11 C10         0.1207   -0.2294    2.4855 C.2       1 <0>         0.5702
     12 O1          0.1826    0.9451    2.8039 O.2       1 <0>        -0.4982
     13 C11        -0.1736   -5.7023   -0.1493 C.2       1 <0>         0.0003
     14 C12        -0.2249   -7.0251    0.1523 C.2       1 <0>        -0.0213
     15 N2         -0.2802   -7.7013   -1.0051 N.2       1 <0>        -0.4838
     16 C13        -0.2648   -6.8505   -1.9924 C.2       1 <0>         0.1772
     17 O2         -0.2048   -5.6067   -1.4967 O.3       1 <0>        -0.2014
     18 N3         -0.0795   -0.6680   -1.2412 N.pl3     1 <0>        -0.6788
     19 C14        -1.1434   -0.3442   -2.0875 C.ar      1 <0>         0.2502
     20 C15        -2.1391    0.5221   -1.6539 C.ar      1 <0>        -0.1989
     21 C16        -3.1888    0.8403   -2.4930 C.ar      1 <0>         0.0223
     22 C17        -3.2494    0.2977   -3.7636 C.ar      1 <0>        -0.7174
     23 C18        -2.2599   -0.5650   -4.1984 C.ar      1 <0>         0.0271
     24 C19        -1.2046   -0.8834   -3.3664 C.ar      1 <0>        -0.1945
     25 S1         -4.5908    0.7060   -4.8306 S.o2      1 <0>         2.7039
     26 O3         -4.7036   -0.3575   -5.7663 O.2       1 <0>        -0.9648
     27 O4         -5.6690    1.1023   -3.9942 O.2       1 <0>        -0.9625
     28 N4         -4.1412    2.0477   -5.6909 N.pl3     1 <0>        -1.2491
     29 H1          1.2687    1.7255    0.0317 H         1 <0>         0.0966
     30 H2         -0.2390    1.9039   -0.8974 H         1 <0>         0.0809
     31 H3         -0.2896    1.8600    0.8813 H         1 <0>         0.1059
     32 H4         -0.0811   -3.0616   -0.7088 H         1 <0>         0.1278
     33 H5         -0.1116   -5.8555    2.5431 H         1 <0>         0.1411
     34 H6          0.0039   -4.0074    4.1476 H         1 <0>         0.1396
     35 H7          0.1204   -1.1985    4.2952 H         1 <0>         0.4219
     36 H8         -0.2214   -7.4546    1.1432 H         1 <0>         0.1870
     37 H9         -0.2988   -7.1065   -3.0411 H         1 <0>         0.2529
     38 H10         0.5609   -1.3471   -1.5052 H         1 <0>         0.4169
     39 H11        -2.0925    0.9459   -0.6617 H         1 <0>         0.1377
     40 H12        -3.9634    1.5134   -2.1564 H         1 <0>         0.1466
     41 H13        -2.3105   -0.9873   -5.1911 H         1 <0>         0.1468
     42 H14        -0.4299   -1.5537   -3.7082 H         1 <0>         0.1370
     43 H15        -4.4877    2.1885   -6.5859 H         1 <0>         0.4215
     44 H16        -3.5315    2.6927   -5.2998 H         1 <0>         0.4168
@<TRIPOS>BOND
     1    1    2 1
     2    1   29 1
     3    1   30 1
     4    1   31 1
     5    2    3 2
     6    2   18 1
     7    3   11 1
     8    3    4 1
     9    4    9 ar
    10    4    5 ar
    11    5    6 ar
    12    5   32 1
    13    6    7 ar
    14    6   13 1
    15    7    8 ar
    16    7   33 1
    17    8    9 ar
    18    8   34 1
    19    9   10 1
    20   10   11 am
    21   10   35 1
    22   11   12 2
    23   13   17 1
    24   13   14 2
    25   14   15 1
    26   14   36 1
    27   15   16 2
    28   16   17 1
    29   16   37 1
    30   18   19 1
    31   18   38 1
    32   19   24 ar
    33   19   20 ar
    34   20   21 ar
    35   20   39 1
    36   21   22 ar
    37   21   40 1
    38   22   23 ar
    39   22   25 1
    40   23   24 ar
    41   23   41 1
    42   24   42 1
    43   25   26 2
    44   25   27 2
    45   25   28 1
    46   28   43 1
    47   28   44 1
@<TRIPOS>MOLECULE
CHEMBL439514
   45    48     0     0     0
SMALL
USER_CHARGES

@<TRIPOS>ATOM
      1 C1         -0.0187    1.5258    0.0104 C.3       1 <0>        -0.1619
      2 C2          0.0021   -0.0041    0.0020 C.3       1 <0>         0.1539
      3 C3          0.7421   -0.5109    1.2415 C.3       1 <0>        -0.1659
      4 N1         -1.3723   -0.5112    0.0124 N.am      1 <0>        -0.7380
      5 C4         -1.6432   -1.7342   -0.4849 C.2       1 <0>         0.7352
      6 O1         -0.7468   -2.4167   -0.9421 O.2       1 <0>        -0.5783
      7 N2         -2.9076   -2.2007   -0.4753 N.am      1 <0>        -0.6319
      8 C5         -3.3577   -3.5049   -0.9714 C.3       1 <0>         0.2210
      9 C6         -4.8470   -3.5893   -0.7560 C.2       1 <0>        -0.3074
     10 C7         -5.2812   -2.4031   -0.1619 C.2       1 <0>         0.0679
     11 N3         -6.5762   -2.4837    0.0227 N.2       1 <0>        -0.2454
     12 N4         -7.0141   -3.7274   -0.4487 N.pl3     1 <0>        -0.4539
     13 H1         -7.9275   -4.0534   -0.4372 H         1 <0>         0.4566
     14 C8         -5.9324   -4.3953   -0.9254 C.2       1 <0>         0.3595
     15 N5         -5.9323   -5.6718   -1.4851 N.am      1 <0>        -0.6385
     16 C9         -7.0856   -6.3610   -1.5917 C.2       1 <0>         0.5758
     17 O2         -8.1263   -5.8691   -1.1996 O.2       1 <0>        -0.5208
     18 C10        -7.0854   -7.7125   -2.1842 C.ar      1 <0>        -0.1366
     19 C11        -5.8898   -8.2817   -2.6300 C.ar      1 <0>        -0.0653
     20 C12        -5.8917   -9.5433   -3.1833 C.ar      1 <0>        -0.1068
     21 C13        -7.0792  -10.2535   -3.3001 C.ar      1 <0>         0.0735
     22 C14        -8.2767   -9.6908   -2.8566 C.ar      1 <0>         0.0256
     23 C15        -8.2802   -8.4286   -2.2956 C.ar      1 <0>        -0.0336
     24 O3         -9.2864  -10.5818   -3.0826 O.3       1 <0>        -0.3019
     25 C16        -8.7613  -11.5224   -4.0379 C.3       1 <0>         0.2115
     26 O4         -7.3414  -11.4941   -3.8018 O.3       1 <0>        -0.3012
     27 C17        -4.0891   -1.5015    0.0389 C.3       1 <0>         0.1942
     28 H2          1.0039    1.9031    0.0027 H         1 <0>         0.0753
     29 H3         -0.5459    1.8868   -0.8726 H         1 <0>         0.0624
     30 H4         -0.5289    1.8773    0.9072 H         1 <0>         0.0614
     31 H5          0.5123   -0.3556   -0.8948 H         1 <0>         0.0901
     32 H6          0.2319   -0.1594    2.1383 H         1 <0>         0.0561
     33 H7          0.7568   -1.6008    1.2356 H         1 <0>         0.0615
     34 H8          1.7647   -0.1336    1.2338 H         1 <0>         0.0667
     35 H9         -2.0874    0.0333    0.3772 H         1 <0>         0.3967
     36 H10        -3.1326   -3.5934   -2.0342 H         1 <0>         0.0756
     37 H11        -2.8590   -4.3019   -0.4199 H         1 <0>         0.0753
     38 H12        -5.1021   -6.0642   -1.7978 H         1 <0>         0.4303
     39 H13        -4.9642   -7.7324   -2.5412 H         1 <0>         0.1451
     40 H14        -4.9665   -9.9814   -3.5276 H         1 <0>         0.1498
     41 H15        -9.2056   -7.9939   -1.9478 H         1 <0>         0.1530
     42 H16        -9.1604  -12.5196   -3.8526 H         1 <0>         0.1391
     43 H17        -8.9868  -11.2015   -5.0549 H         1 <0>         0.0919
     44 H18        -3.9592   -1.2881    1.0999 H         1 <0>         0.0914
     45 H19        -4.2358   -0.5714   -0.5103 H         1 <0>         0.0912
@<TRIPOS>BOND
     1    1    2 1
     2    1   28 1
     3    1   29 1
     4    1   30 1
     5    2    3 1
     6    2    4 1
     7    2   31 1
     8    3   32 1
     9    3   33 1
    10    3   34 1
    11    4    5 am
    12    4   35 1
    13    5    6 2
    14    5    7 am
    15    7   27 1
    16    7    8 1
    17    8    9 1
    18    8   36 1
    19    8   37 1
    20    9   14 2
    21    9   10 1
    22   10   11 2
    23   10   27 1
    24   11   12 1
    25   12   13 1
    26   12   14 1
    27   14   15 1
    28   15   16 am
    29   15   38 1
    30   16   17 2
    31   16   18 1
    32   18   23 ar
    33   18   19 ar
    34   19   20 ar
    35   19   39 1
    36   20   21 ar
    37   20   40 1
    38   21   26 1
    39   21   22 ar
    40   22   23 ar
    41   22   24 1
    42   23   41 1
    43   24   25 1
    44   25   26 1
    45   25   42 1
    46   25   43 1
    47   27   44 1
    48   27   45 1
@<TRIPOS>MOLECULE
CHEMBL439514
   45    48     0     0     0
SMALL
USER_CHARGES

@<TRIPOS>ATOM
      1 C1         -0.0187    1.5258    0.0104 C.3       1 <0>        -0.1618
      2 C2          0.0021   -0.0041    0.0020 C.3       1 <0>         0.1536
      3 C3          0.7421   -0.5109    1.2415 C.3       1 <0>        -0.1660
      4 N1         -1.3723   -0.5112    0.0124 N.am      1 <0>        -0.7380
      5 C4         -1.6432   -1.7342   -0.4849 C.2       1 <0>         0.7355
      6 O1         -0.7468   -2.4167   -0.9421 O.2       1 <0>        -0.5743
      7 N2         -2.9076   -2.2007   -0.4753 N.am      1 <0>        -0.6317
      8 C5         -3.3686   -3.5035   -0.9689 C.3       1 <0>         0.2107
      9 C6         -4.8584   -3.5712   -0.7461 C.2       1 <0>        -0.2798
     10 C7         -5.2771   -2.4243   -0.1719 C.2       1 <0>         0.0728
     11 N3         -6.6134   -2.5167    0.0140 N.pl3     1 <0>        -0.4411
     12 N4         -7.0320   -3.7648   -0.4628 N.2       1 <0>        -0.2483
     13 H1         -7.1823   -1.8372    0.4083 H         1 <0>         0.4462
     14 C8         -5.9806   -4.4015   -0.9203 C.2       1 <0>         0.3393
     15 N5         -5.9758   -5.6840   -1.4839 N.am      1 <0>        -0.6346
     16 C9         -7.1269   -6.3765   -1.5927 C.2       1 <0>         0.5611
     17 O2         -8.1696   -5.8881   -1.2017 O.2       1 <0>        -0.4804
     18 C10        -7.1219   -7.7277   -2.1865 C.ar      1 <0>        -0.1281
     19 C11        -5.9240   -8.2928   -2.6310 C.ar      1 <0>        -0.0706
     20 C12        -5.9213   -9.5542   -3.1849 C.ar      1 <0>        -0.1066
     21 C13        -7.1064  -10.2680   -3.3036 C.ar      1 <0>         0.0658
     22 C14        -8.3062   -9.7093   -2.8613 C.ar      1 <0>         0.0257
     23 C15        -8.3143   -8.4472   -2.3002 C.ar      1 <0>        -0.0375
     24 O3         -9.3128  -10.6033   -3.0890 O.3       1 <0>        -0.3031
     25 C16        -8.7836  -11.5418   -4.0441 C.3       1 <0>         0.2118
     26 O4         -7.3641  -11.5092   -3.8062 O.3       1 <0>        -0.3031
     27 C17        -4.0966   -1.5096    0.0365 C.3       1 <0>         0.1814
     28 H2          1.0039    1.9031    0.0027 H         1 <0>         0.0760
     29 H3         -0.5459    1.8868   -0.8726 H         1 <0>         0.0623
     30 H4         -0.5289    1.8773    0.9072 H         1 <0>         0.0610
     31 H5          0.5123   -0.3556   -0.8948 H         1 <0>         0.0908
     32 H6          0.7568   -1.6008    1.2356 H         1 <0>         0.0619
     33 H7          1.7647   -0.1336    1.2338 H         1 <0>         0.0675
     34 H8          0.2319   -0.1594    2.1383 H         1 <0>         0.0559
     35 H9         -2.0874    0.0333    0.3772 H         1 <0>         0.3955
     36 H10        -3.1489   -3.5950   -2.0326 H         1 <0>         0.0784
     37 H11        -2.8738   -4.3038   -0.4187 H         1 <0>         0.0783
     38 H12        -5.1441   -6.0737   -1.7958 H         1 <0>         0.4225
     39 H13        -5.0003   -7.7407   -2.5408 H         1 <0>         0.1439
     40 H14        -4.9943   -9.9892   -3.5282 H         1 <0>         0.1472
     41 H15        -9.2416   -8.0154   -1.9536 H         1 <0>         0.1518
     42 H16        -9.1799  -12.5403   -3.8597 H         1 <0>         0.1373
     43 H17        -9.0088  -11.2211   -5.0612 H         1 <0>         0.0902
     44 H18        -3.9730   -1.2976    1.0985 H         1 <0>         0.0906
     45 H19        -4.2497   -0.5805   -0.5125 H         1 <0>         0.0903
@<TRIPOS>BOND
     1    1    2 1
     2    1   28 1
     3    1   29 1
     4    1   30 1
     5    2    3 1
     6    2    4 1
     7    2   31 1
     8    3   32 1
     9    3   33 1
    10    3   34 1
    11    4    5 am
    12    4   35 1
    13    5    6 2
    14    5    7 am
    15    7   27 1
    16    7    8 1
    17    8   36 1
    18    8   37 1
    19    8    9 1
    20    9   14 1
    21    9   10 2
    22   10   27 1
    23   10   11 1
    24   11   12 1
    25   11   13 1
    26   12   14 2
    27   14   15 1
    28   15   16 am
    29   15   38 1
    30   16   17 2
    31   16   18 1
    32   18   23 ar
    33   18   19 ar
    34   19   20 ar
    35   19   39 1
    36   20   21 ar
    37   20   40 1
    38   21   26 1
    39   21   22 ar
    40   22   23 ar
    41   22   24 1
    42   23   41 1
    43   24   25 1
    44   25   26 1
    45   25   42 1
    46   25   43 1
    47   27   44 1
    48   27   45 1
@<TRIPOS>MOLECULE
CHEMBL151551
   54    58     0     0     0
SMALL
USER_CHARGES

@<TRIPOS>ATOM
      1 C1          0.0274    1.4353   -0.0084 C.3       1 <0>         0.0224
      2 O1          0.0372    0.0064   -0.0129 O.3       1 <0>        -0.3103
      3 C2          0.6381   -0.6027   -1.0673 C.ar      1 <0>         0.1576
      4 C3          1.2121    0.1632   -2.0747 C.ar      1 <0>        -0.2097
      5 C4          1.8231   -0.4504   -3.1459 C.ar      1 <0>        -0.0481
      6 C5          1.8653   -1.8456   -3.2186 C.ar      1 <0>        -0.1112
      7 C6          1.2867   -2.6120   -2.2031 C.ar      1 <0>        -0.0247
      8 C7          0.6824   -1.9900   -1.1329 C.ar      1 <0>        -0.1518
      9 C8          2.5182   -2.5072   -4.3641 C.2       1 <0>         0.2570
     10 C9          2.0181   -3.5797   -5.0900 C.2       1 <0>        -0.3419
     11 C10         3.0118   -3.8855   -6.1224 C.2       1 <0>         0.1179
     12 N1          3.9989   -3.0365   -5.9772 N.2       1 <0>        -0.2235
     13 N2          3.7217   -2.1757   -4.9106 N.pl3     1 <0>        -0.4605
     14 H1          4.2970   -1.4566   -4.6061 H         1 <0>         0.4524
     15 C11         2.4975   -5.0319   -6.9122 C.ar      1 <0>         0.0482
     16 C12         3.0302   -5.7184   -7.9961 C.ar      1 <0>        -0.0895
     17 C13         2.3357   -6.7738   -8.5635 C.ar      1 <0>        -0.0637
     18 C14         1.1090   -7.1566   -8.0606 C.ar      1 <0>        -0.1162
     19 C15         0.5561   -6.4842   -6.9758 C.ar      1 <0>         0.1912
     20 C16         1.2484   -5.4147   -6.3933 C.ar      1 <0>        -0.1704
     21 C17         0.9133   -4.5337   -5.2562 C.2       1 <0>         0.4944
     22 O2         -0.0956   -4.5887   -4.5785 O.2       1 <0>        -0.4469
     23 N3         -0.6820   -6.8723   -6.4710 N.am      1 <0>        -0.6377
     24 C18        -1.6371   -7.3282   -7.3055 C.2       1 <0>         0.5045
     25 O3         -1.3919   -7.4779   -8.4837 O.2       1 <0>        -0.5085
     26 C19        -3.0098   -7.6520   -6.7744 C.3       1 <0>        -0.0298
     27 N4         -3.8608   -8.1263   -7.8738 N.4       1 <0>        -0.3754
     28 C20        -4.0250   -7.0495   -8.8524 C.3       1 <0>        -0.0239
     29 C21        -4.5812   -7.6177  -10.1635 C.3       1 <0>        -0.1183
     30 S1         -6.2216   -8.3304   -9.8259 S.3       1 <0>        -0.1940
     31 C22        -5.9074   -9.3836   -8.3750 C.3       1 <0>        -0.1263
     32 C23        -5.1529   -8.5513   -7.3315 C.3       1 <0>        -0.0121
     33 H2          1.0525    1.8057   -0.0153 H         1 <0>         0.0607
     34 H3         -0.4959    1.7979   -0.8932 H         1 <0>         0.0599
     35 H4         -0.4820    1.7924    0.8867 H         1 <0>         0.1071
     36 H5          1.1787    1.2412   -2.0179 H         1 <0>         0.1391
     37 H6          2.2687    0.1456   -3.9286 H         1 <0>         0.1301
     38 H7          1.3170   -3.6903   -2.2553 H         1 <0>         0.1364
     39 H8          0.2389   -2.5814   -0.3455 H         1 <0>         0.1419
     40 H9          3.9895   -5.4277   -8.3980 H         1 <0>         0.1459
     41 H10         2.7575   -7.3013   -9.4063 H         1 <0>         0.1484
     42 H11         0.5761   -7.9808   -8.5112 H         1 <0>         0.1524
     43 H12        -0.8571   -6.8147   -5.5187 H         1 <0>         0.4291
     44 H13        -2.9313   -8.4293   -6.0143 H         1 <0>         0.1696
     45 H14        -3.4497   -6.7569   -6.3346 H         1 <0>         0.1699
     46 H15        -4.7163   -6.3045   -8.4585 H         1 <0>         0.1416
     47 H16        -3.0590   -6.5815   -9.0415 H         1 <0>         0.1582
     48 H17        -4.6717   -6.8198  -10.9006 H         1 <0>         0.1540
     49 H18        -3.9141   -8.3930  -10.5403 H         1 <0>         0.1132
     50 H19        -6.8542   -9.7259   -7.9574 H         1 <0>         0.1566
     51 H20        -5.3026  -10.2418   -8.6678 H         1 <0>         0.1119
     52 H21        -4.9901   -9.1528   -6.4372 H         1 <0>         0.1477
     53 H22        -5.7438   -7.6726   -7.0729 H         1 <0>         0.1470
     54 H23        -3.4150   -8.9133   -8.3210 H         1 <0>         0.4281
@<TRIPOS>BOND
     1    1    2 1
     2    1   33 1
     3    1   34 1
     4    1   35 1
     5    2    3 1
     6    3    8 ar
     7    3    4 ar
     8    4    5 ar
     9    4   36 1
    10    5    6 ar
    11    5   37 1
    12    6    7 ar
    13    6    9 1
    14    7    8 ar
    15    7   38 1
    16    8   39 1
    17    9   13 1
    18    9   10 2
    19   10   21 1
    20   10   11 1
    21   11   12 2
    22   11   15 1
    23   12   13 1
    24   13   14 1
    25   15   20 ar
    26   15   16 ar
    27   16   17 ar
    28   16   40 1
    29   17   18 ar
    30   17   41 1
    31   18   19 ar
    32   18   42 1
    33   19   20 ar
    34   19   23 1
    35   20   21 1
    36   21   22 2
    37   23   24 am
    38   23   43 1
    39   24   25 2
    40   24   26 1
    41   26   27 1
    42   26   44 1
    43   26   45 1
    44   27   32 1
    45   27   28 1
    46   27   54 1
    47   28   29 1
    48   28   46 1
    49   28   47 1
    50   29   30 1
    51   29   48 1
    52   29   49 1
    53   30   31 1
    54   31   32 1
    55   31   50 1
    56   31   51 1
    57   32   52 1
    58   32   53 1
@<TRIPOS>MOLECULE
CHEMBL151551
   54    58     0     0     0
SMALL
USER_CHARGES

@<TRIPOS>ATOM
      1 C1         -0.0073    1.4424   -0.0281 C.3       1 <0>         0.0236
      2 O1          0.0075    0.0135   -0.0356 O.3       1 <0>        -0.3137
      3 C2          0.6163   -0.5916   -1.0886 C.ar      1 <0>         0.1495
      4 C3          1.1926    0.1774   -2.0909 C.ar      1 <0>        -0.2120
      5 C4          1.8117   -0.4335   -3.1607 C.ar      1 <0>        -0.0389
      6 C5          1.8586   -1.8253   -3.2354 C.ar      1 <0>        -0.0807
      7 C6          1.2788   -2.5947   -2.2271 C.ar      1 <0>        -0.0356
      8 C7          0.6659   -1.9776   -1.1573 C.ar      1 <0>        -0.1546
      9 C8          2.5228   -2.4854   -4.3842 C.2       1 <0>         0.2072
     10 C9          3.2580   -3.6940   -4.3395 C.2       1 <0>        -0.3149
     11 C10         3.7058   -3.9522   -5.6283 C.2       1 <0>         0.1505
     12 N1          3.2631   -2.9481   -6.4156 N.pl3     1 <0>        -0.4171
     13 N2          2.5288   -2.0543   -5.6284 N.2       1 <0>        -0.2620
     14 H1          3.4244   -2.8627   -7.3683 H         1 <0>         0.4501
     15 C11         4.4834   -5.2146   -5.6225 C.ar      1 <0>         0.0168
     16 C12         5.1370   -5.9075   -6.6308 C.ar      1 <0>        -0.0920
     17 C13         5.8042   -7.0918   -6.3451 C.ar      1 <0>        -0.0642
     18 C14         5.8255   -7.5918   -5.0623 C.ar      1 <0>        -0.1125
     19 C15         5.1737   -6.9099   -4.0322 C.ar      1 <0>         0.1969
     20 C16         4.5013   -5.7203   -4.3093 C.ar      1 <0>        -0.1700
     21 C17         3.7321   -4.7822   -3.4606 C.2       1 <0>         0.4868
     22 O2          3.5301   -4.8871   -2.2669 O.2       1 <0>        -0.4318
     23 N3          5.1952   -7.4151   -2.7363 N.am      1 <0>        -0.6389
     24 C18         5.1765   -8.7472   -2.5319 C.2       1 <0>         0.5058
     25 O3          5.2233   -9.5063   -3.4765 O.2       1 <0>        -0.5076
     26 C19         5.0976   -9.2933   -1.1296 C.3       1 <0>        -0.0299
     27 N4          5.0916  -10.7616   -1.1755 N.4       1 <0>        -0.3756
     28 C20         3.8895  -11.2148   -1.8781 C.3       1 <0>        -0.0240
     29 C21         4.0381  -12.6909   -2.2655 C.3       1 <0>        -0.1187
     30 S1          4.2030  -13.6676   -0.7385 S.3       1 <0>        -0.1928
     31 C22         5.5032  -12.7729    0.1681 C.3       1 <0>        -0.1266
     32 C23         5.1354  -11.2846    0.1915 C.3       1 <0>        -0.0122
     33 H2          1.0165    1.8163   -0.0289 H         1 <0>         0.0589
     34 H3         -0.5272    1.8050   -0.9149 H         1 <0>         0.0595
     35 H4         -0.5226    1.7958    0.8650 H         1 <0>         0.1047
     36 H5          1.1556    1.2552   -2.0327 H         1 <0>         0.1363
     37 H6          2.2595    0.1651   -3.9402 H         1 <0>         0.1325
     38 H7          1.3132   -3.6728   -2.2822 H         1 <0>         0.1326
     39 H8          0.2203   -2.5728   -0.3740 H         1 <0>         0.1374
     40 H9          5.1269   -5.5252   -7.6409 H         1 <0>         0.1433
     41 H10         6.3103   -7.6253   -7.1361 H         1 <0>         0.1494
     42 H11         6.3472   -8.5138   -4.8521 H         1 <0>         0.1540
     43 H12         5.2237   -6.8087   -1.9798 H         1 <0>         0.4301
     44 H13         5.9599   -8.9512   -0.5573 H         1 <0>         0.1703
     45 H14         4.1825   -8.9410   -0.6535 H         1 <0>         0.1709
     46 H15         3.0233  -11.0967   -1.2272 H         1 <0>         0.1422
     47 H16         3.7489  -10.6165   -2.7783 H         1 <0>         0.1576
     48 H17         3.1561  -13.0168   -2.8168 H         1 <0>         0.1541
     49 H18         4.9269  -12.8211   -2.8829 H         1 <0>         0.1129
     50 H19         5.5671  -13.1518    1.1882 H         1 <0>         0.1570
     51 H20         6.4608  -12.9070   -0.3350 H         1 <0>         0.1118
     52 H21         5.8822  -10.7360    0.7654 H         1 <0>         0.1479
     53 H22         4.1584  -11.1602    0.6584 H         1 <0>         0.1475
     54 H23         5.9069  -11.0799   -1.6776 H         1 <0>         0.4280
@<TRIPOS>BOND
     1    1    2 1
     2    1   33 1
     3    1   34 1
     4    1   35 1
     5    2    3 1
     6    3    8 ar
     7    3    4 ar
     8    4    5 ar
     9    4   36 1
    10    5    6 ar
    11    5   37 1
    12    6    7 ar
    13    6    9 1
    14    7    8 ar
    15    7   38 1
    16    8   39 1
    17    9   10 1
    18    9   13 2
    19   10   21 1
    20   10   11 2
    21   11   15 1
    22   11   12 1
    23   12   14 1
    24   12   13 1
    25   15   20 ar
    26   15   16 ar
    27   16   17 ar
    28   16   40 1
    29   17   18 ar
    30   17   41 1
    31   18   19 ar
    32   18   42 1
    33   19   20 ar
    34   19   23 1
    35   20   21 1
    36   21   22 2
    37   23   24 am
    38   23   43 1
    39   24   25 2
    40   24   26 1
    41   26   27 1
    42   26   44 1
    43   26   45 1
    44   27   32 1
    45   27   28 1
    46   27   54 1
    47   28   29 1
    48   28   46 1
    49   28   47 1
    50   29   30 1
    51   29   48 1
    52   29   49 1
    53   30   31 1
    54   31   32 1
    55   31   50 1
    56   31   51 1
    57   32   52 1
    58   32   53 1
@<TRIPOS>MOLECULE
CHEMBL382607
   59    63     0     0     0
SMALL
USER_CHARGES

@<TRIPOS>ATOM
      1 C1         -0.1911    4.5123    5.3123 C.ar      1 <0>        -0.0622
      2 C2         -0.2476    3.8175    6.5060 C.ar      1 <0>        -0.1391
      3 C3          0.9169    3.5230    7.1901 C.ar      1 <0>        -0.0237
      4 C4          2.1380    3.9228    6.6803 C.ar      1 <0>        -0.6588
      5 C5          2.1946    4.6167    5.4861 C.ar      1 <0>        -0.0224
      6 C6          1.0300    4.9125    4.8027 C.ar      1 <0>        -0.1381
      7 S1          3.6223    3.5483    7.5528 S.o2      1 <0>         2.5833
      8 O1          4.5877    4.5066    7.1419 O.2       1 <0>        -0.9335
      9 O2          3.2586    3.3692    8.9148 O.2       1 <0>        -0.9351
     10 C7          4.1871    1.9835    6.9725 C.ar      1 <0>        -0.6869
     11 C8          3.7642    0.8232    7.5948 C.ar      1 <0>         0.0221
     12 C9          4.2050   -0.4049    7.1424 C.ar      1 <0>        -0.1752
     13 C10         5.0738   -0.4739    6.0607 C.ar      1 <0>         0.2419
     14 C11         5.4964    0.6935    5.4377 C.ar      1 <0>        -0.1797
     15 C12         5.0479    1.9181    5.8921 C.ar      1 <0>         0.0208
     16 N1          5.5223   -1.7153    5.6006 N.pl3     1 <0>        -0.6725
     17 C13         5.2205   -2.8621    6.3052 C.2       1 <0>         0.4690
     18 C14         4.5403   -3.8856    5.7069 C.2       1 <0>        -0.2726
     19 C15         4.2491   -5.0379    6.4513 C.2       1 <0>         0.4913
     20 N2          4.6299   -5.1286    7.7159 N.2       1 <0>        -0.5353
     21 C16         5.2960   -4.1307    8.3076 C.2       1 <0>         0.4965
     22 N3          5.6021   -2.9953    7.6119 N.pl3     1 <0>        -0.3663
     23 N4          6.2969   -2.1626    8.4989 N.2       1 <0>        -0.3261
     24 C17         6.3829   -2.8018    9.6390 C.2       1 <0>         0.2600
     25 N5          5.7776   -3.9798    9.5367 N.2       1 <0>        -0.5346
     26 N6          3.5610   -6.0836    5.8619 N.pl3     1 <0>        -0.6948
     27 C18         3.2554   -7.2886    6.6371 C.3       1 <0>         0.1469
     28 C19         4.4510   -8.2421    6.5899 C.3       1 <0>        -0.1298
     29 C20         4.1319   -9.5006    7.3994 C.3       1 <0>        -0.1393
     30 C21         2.9040  -10.1923    6.8039 C.3       1 <0>         0.0237
     31 C22         1.7084   -9.2388    6.8511 C.3       1 <0>        -0.1374
     32 C23         2.0276   -7.9803    6.0415 C.3       1 <0>        -0.1282
     33 N7          2.5976  -11.4006    7.5812 N.4       1 <0>        -0.6369
     34 H1         -1.1006    4.7385    4.7756 H         1 <0>         0.1332
     35 H2         -1.2016    3.5052    6.9044 H         1 <0>         0.1347
     36 H3          0.8727    2.9808    8.1231 H         1 <0>         0.1413
     37 H4          3.1486    4.9294    5.0879 H         1 <0>         0.1430
     38 H5          1.0742    5.4550    3.8699 H         1 <0>         0.1358
     39 H6          3.0887    0.8776    8.4357 H         1 <0>         0.1448
     40 H7          3.8749   -1.3106    7.6293 H         1 <0>         0.1181
     41 H8          6.1721    0.6434    4.5967 H         1 <0>         0.1403
     42 H9          5.3728    2.8259    5.4056 H         1 <0>         0.1503
     43 H10         6.0458   -1.7703    4.7858 H         1 <0>         0.4310
     44 H11         4.2309   -3.8078    4.6751 H         1 <0>         0.1722
     45 H12         6.8639   -2.4244   10.5293 H         1 <0>         0.2326
     46 H13         3.2809   -6.0188    4.9355 H         1 <0>         0.4191
     47 H14         3.0511   -7.0130    7.6717 H         1 <0>         0.1040
     48 H15         4.6553   -8.5177    5.5553 H         1 <0>         0.0763
     49 H16         5.3258   -7.7493    7.0142 H         1 <0>         0.0933
     50 H17         4.9837  -10.1799    7.3658 H         1 <0>         0.0924
     51 H18         3.9276   -9.2250    8.4340 H         1 <0>         0.0939
     52 H19         3.1084  -10.4680    5.7693 H         1 <0>         0.1429
     53 H20         0.8337   -9.7316    6.4268 H         1 <0>         0.0952
     54 H21         1.5041   -8.9632    7.8857 H         1 <0>         0.0936
     55 H22         1.1758   -7.3010    6.0752 H         1 <0>         0.0942
     56 H23         2.2319   -8.2559    5.0069 H         1 <0>         0.0825
     57 H24         2.4085  -11.1455    8.5389 H         1 <0>         0.4346
     58 H25         1.7879  -11.8568    7.1884 H         1 <0>         0.4365
     59 H26         3.3861  -12.0295    7.5500 H         1 <0>         0.4374
@<TRIPOS>BOND
     1    1    6 ar
     2    1    2 ar
     3    1   34 1
     4    2    3 ar
     5    2   35 1
     6    3    4 ar
     7    3   36 1
     8    4    5 ar
     9    4    7 1
    10    5    6 ar
    11    5   37 1
    12    6   38 1
    13    7    8 2
    14    7    9 2
    15    7   10 1
    16   10   15 ar
    17   10   11 ar
    18   11   12 ar
    19   11   39 1
    20   12   13 ar
    21   12   40 1
    22   13   14 ar
    23   13   16 1
    24   14   15 ar
    25   14   41 1
    26   15   42 1
    27   16   17 1
    28   16   43 1
    29   17   22 1
    30   17   18 2
    31   18   19 1
    32   18   44 1
    33   19   20 2
    34   19   26 1
    35   20   21 1
    36   21   25 2
    37   21   22 1
    38   22   23 1
    39   23   24 2
    40   24   25 1
    41   24   45 1
    42   26   27 1
    43   26   46 1
    44   27   32 1
    45   27   28 1
    46   27   47 1
    47   28   29 1
    48   28   48 1
    49   28   49 1
    50   29   30 1
    51   29   50 1
    52   29   51 1
    53   30   31 1
    54   30   33 1
    55   30   52 1
    56   31   32 1
    57   31   53 1
    58   31   54 1
    59   32   55 1
    60   32   56 1
    61   33   57 1
    62   33   58 1
    63   33   59 1
@<TRIPOS>MOLECULE
CHEMBL443198
   31    32     0     0     0
SMALL
USER_CHARGES

@<TRIPOS>ATOM
      1 C1          1.0714   -0.4532   -0.7667 C.ar      1 <0>        -0.0916
      2 C2          2.2560    0.2567   -0.7793 C.ar      1 <0>        -0.1324
      3 C3          2.3777    1.4159   -0.0316 C.ar      1 <0>         0.0850
      4 C4          1.3122    1.8660    0.7299 C.ar      1 <0>        -0.1323
      5 C5          0.1257    1.1593    0.7450 C.ar      1 <0>        -0.1133
      6 C6          0.0017   -0.0036   -0.0038 C.ar      1 <0>         0.1358
      7 N1         -1.1998   -0.7213    0.0101 N.am      1 <0>        -0.6572
      8 C7         -1.1837   -2.0645   -0.0990 C.2       1 <0>         0.6148
      9 O1         -0.1240   -2.6608   -0.1129 O.2       1 <0>        -0.5199
     10 C8         -2.4514   -2.8113   -0.2015 C.2       1 <0>        -0.0403
     11 C9         -2.5947   -4.2184   -0.3153 C.2       1 <0>         0.0896
     12 C10        -3.9342   -4.4412   -0.3794 C.2       1 <0>        -0.0232
     13 N2         -4.5435   -3.2299   -0.3071 N.pl3     1 <0>        -0.3662
     14 H1         -5.5029   -3.0892   -0.3295 H         1 <0>         0.4558
     15 N3         -3.6664   -2.2977   -0.1990 N.2       1 <0>        -0.2377
     16 N4         -1.5704   -5.1771   -0.3540 N.am      1 <0>        -0.6335
     17 C11        -1.8755   -6.4851   -0.4657 C.2       1 <0>         0.5107
     18 O2         -3.0354   -6.8338   -0.5328 O.2       1 <0>        -0.5062
     19 C12        -0.7757   -7.5145   -0.5072 C.3       1 <0>         0.0649
     20 O3         -1.3479   -8.8184   -0.6279 O.3       1 <0>        -0.5478
     21 F1          3.5376    2.1084   -0.0446 F         1 <0>        -0.1384
     22 H2          0.9756   -1.3550   -1.3532 H         1 <0>         0.1452
     23 H3          3.0882   -0.0926   -1.3725 H         1 <0>         0.1406
     24 H4          1.4093    2.7701    1.3126 H         1 <0>         0.1413
     25 H5         -0.7049    1.5105    1.3393 H         1 <0>         0.1381
     26 H6         -2.0441   -0.2519    0.0982 H         1 <0>         0.4207
     27 H7         -4.4218   -5.4005   -0.4709 H         1 <0>         0.2107
     28 H8         -0.6429   -4.8983   -0.3003 H         1 <0>         0.4258
     29 H9         -0.1290   -7.3209   -1.3630 H         1 <0>         0.0846
     30 H10        -0.1904   -7.4581    0.4106 H         1 <0>         0.0846
     31 H11        -0.6965   -9.5323   -0.6605 H         1 <0>         0.3917
@<TRIPOS>BOND
     1    1    6 ar
     2    1    2 ar
     3    1   22 1
     4    2    3 ar
     5    2   23 1
     6    3    4 ar
     7    3   21 1
     8    4    5 ar
     9    4   24 1
    10    5    6 ar
    11    5   25 1
    12    6    7 1
    13    7    8 am
    14    7   26 1
    15    8    9 2
    16    8   10 1
    17   10   15 2
    18   10   11 1
    19   11   12 2
    20   11   16 1
    21   12   13 1
    22   12   27 1
    23   13   14 1
    24   13   15 1
    25   16   17 am
    26   16   28 1
    27   17   18 2
    28   17   19 1
    29   19   20 1
    30   19   29 1
    31   19   30 1
    32   20   31 1
@<TRIPOS>MOLECULE
CHEMBL443198
   31    32     0     0     0
SMALL
USER_CHARGES

@<TRIPOS>ATOM
      1 C1          1.0717   -0.4531   -0.7664 C.ar      1 <0>        -0.0892
      2 C2          2.2564    0.2566   -0.7782 C.ar      1 <0>        -0.1322
      3 C3          2.3778    1.4157   -0.0303 C.ar      1 <0>         0.0887
      4 C4          1.3123    1.8655    0.7312 C.ar      1 <0>        -0.1324
      5 C5          0.1259    1.1586    0.7462 C.ar      1 <0>        -0.1127
      6 C6          0.0017   -0.0036   -0.0038 C.ar      1 <0>         0.1327
      7 N1         -1.1997   -0.7212    0.0096 N.am      1 <0>        -0.6678
      8 C7         -1.1835   -2.0645   -0.0995 C.2       1 <0>         0.6039
      9 O1         -0.1228   -2.6612   -0.1130 O.2       1 <0>        -0.5127
     10 C8         -2.4434   -2.8066   -0.2019 C.2       1 <0>        -0.0964
     11 C9         -2.5959   -4.1850   -0.3194 C.2       1 <0>         0.1359
     12 C10        -3.9822   -4.3970   -0.3822 C.2       1 <0>         0.0027
     13 N2         -4.5704   -3.2322   -0.3064 N.2       1 <0>        -0.2369
     14 H1         -3.9266   -1.3415   -0.1206 H         1 <0>         0.4485
     15 N3         -3.7114   -2.2843   -0.1952 N.pl3     1 <0>        -0.3749
     16 N4         -1.5869   -5.1496   -0.3651 N.am      1 <0>        -0.6345
     17 C11        -1.9062   -6.4538   -0.4821 C.2       1 <0>         0.5125
     18 O2         -3.0698   -6.7897   -0.5477 O.2       1 <0>        -0.4935
     19 C12        -0.8175   -7.4946   -0.5313 C.3       1 <0>         0.0649
     20 O3         -1.4039   -8.7917   -0.6565 O.3       1 <0>        -0.5469
     21 F1          3.5376    2.1084   -0.0433 F         1 <0>        -0.1369
     22 H2          0.9760   -1.3547   -1.3533 H         1 <0>         0.1456
     23 H3          3.0889   -0.0929   -1.3709 H         1 <0>         0.1419
     24 H4          1.4092    2.7695    1.3140 H         1 <0>         0.1424
     25 H5         -0.7046    1.5093    1.3408 H         1 <0>         0.1378
     26 H6         -2.0440   -0.2519    0.0975 H         1 <0>         0.4092
     27 H7         -4.4753   -5.3532   -0.4768 H         1 <0>         0.2125
     28 H8         -0.6563   -4.8809   -0.3126 H         1 <0>         0.4249
     29 H9         -0.1711   -7.3039   -1.3880 H         1 <0>         0.0852
     30 H10        -0.2292   -7.4487    0.3851 H         1 <0>         0.0852
     31 H11        -0.7602   -9.5124   -0.6942 H         1 <0>         0.3923
@<TRIPOS>BOND
     1    1    6 ar
     2    1    2 ar
     3    1   22 1
     4    2    3 ar
     5    2   23 1
     6    3    4 ar
     7    3   21 1
     8    4    5 ar
     9    4   24 1
    10    5    6 ar
    11    5   25 1
    12    6    7 1
    13    7    8 am
    14    7   26 1
    15    8    9 2
    16    8   10 1
    17   10   11 2
    18   10   15 1
    19   11   12 1
    20   11   16 1
    21   12   13 2
    22   12   27 1
    23   13   15 1
    24   14   15 1
    25   16   17 am
    26   16   28 1
    27   17   18 2
    28   17   19 1
    29   19   20 1
    30   19   29 1
    31   19   30 1
    32   20   31 1
@<TRIPOS>MOLECULE
CHEMBL463579
   43    45     0     0     0
SMALL
USER_CHARGES

@<TRIPOS>ATOM
      1 C1          1.0714   -0.4532   -0.7667 C.ar      1 <0>        -0.0915
      2 C2          2.2560    0.2567   -0.7793 C.ar      1 <0>        -0.1323
      3 C3          2.3777    1.4159   -0.0316 C.ar      1 <0>         0.0848
      4 C4          1.3122    1.8660    0.7299 C.ar      1 <0>        -0.1324
      5 C5          0.1257    1.1593    0.7450 C.ar      1 <0>        -0.1136
      6 C6          0.0017   -0.0036   -0.0038 C.ar      1 <0>         0.1362
      7 N1         -1.1998   -0.7213    0.0101 N.am      1 <0>        -0.6576
      8 C7         -1.1837   -2.0645   -0.0990 C.2       1 <0>         0.6142
      9 O1         -0.1240   -2.6608   -0.1129 O.2       1 <0>        -0.5191
     10 C8         -2.4514   -2.8113   -0.2015 C.2       1 <0>        -0.0421
     11 C9         -2.5947   -4.2184   -0.3153 C.2       1 <0>         0.0895
     12 C10        -3.9342   -4.4412   -0.3794 C.2       1 <0>        -0.0257
     13 N2         -4.5435   -3.2299   -0.3071 N.pl3     1 <0>        -0.3670
     14 H1         -5.5029   -3.0892   -0.3295 H         1 <0>         0.4550
     15 N3         -3.6664   -2.2977   -0.1990 N.2       1 <0>        -0.2387
     16 N4         -1.5704   -5.1771   -0.3540 N.am      1 <0>        -0.6343
     17 C11        -1.8755   -6.4851   -0.4657 C.2       1 <0>         0.5183
     18 O2         -3.0354   -6.8338   -0.5328 O.2       1 <0>        -0.5261
     19 C12        -0.7757   -7.5145   -0.5072 C.3       1 <0>        -0.1013
     20 C13         0.1321   -7.2428   -1.7085 C.3       1 <0>        -0.1134
     21 C14         1.2487   -8.2879   -1.7507 C.3       1 <0>        -0.1181
     22 C15         0.6360   -9.6839   -1.8798 C.3       1 <0>        -0.1235
     23 C16        -0.2717   -9.9556   -0.6786 C.3       1 <0>        -0.1207
     24 C17        -1.3883   -8.9105   -0.6364 C.3       1 <0>        -0.0992
     25 F1          3.5376    2.1084   -0.0446 F         1 <0>        -0.1385
     26 H2          0.9756   -1.3550   -1.3532 H         1 <0>         0.1451
     27 H3          3.0882   -0.0926   -1.3725 H         1 <0>         0.1406
     28 H4          1.4093    2.7701    1.3126 H         1 <0>         0.1412
     29 H5         -0.7049    1.5105    1.3393 H         1 <0>         0.1379
     30 H6         -2.0441   -0.2519    0.0982 H         1 <0>         0.4204
     31 H7         -4.4218   -5.4005   -0.4709 H         1 <0>         0.2103
     32 H8         -0.6429   -4.8983   -0.3003 H         1 <0>         0.4250
     33 H9         -0.1904   -7.4581    0.4106 H         1 <0>         0.1027
     34 H10        -0.4532   -7.2992   -2.6263 H         1 <0>         0.0700
     35 H11         0.5686   -6.2482   -1.6165 H         1 <0>         0.0692
     36 H12         1.8954   -8.0943   -2.6065 H         1 <0>         0.0679
     37 H13         1.8340   -8.2315   -0.8329 H         1 <0>         0.0661
     38 H14         0.0508   -9.7403   -2.7976 H         1 <0>         0.0633
     39 H15         1.4316  -10.4285   -1.9099 H         1 <0>         0.0643
     40 H16        -0.7082  -10.9502   -0.7706 H         1 <0>         0.0673
     41 H17         0.3136   -9.8992    0.2392 H         1 <0>         0.0637
     42 H18        -2.0350   -9.1041    0.2194 H         1 <0>         0.0707
     43 H19        -1.9736   -8.9669   -1.5542 H         1 <0>         0.0714
@<TRIPOS>BOND
     1    1    6 ar
     2    1    2 ar
     3    1   26 1
     4    2    3 ar
     5    2   27 1
     6    3    4 ar
     7    3   25 1
     8    4    5 ar
     9    4   28 1
    10    5    6 ar
    11    5   29 1
    12    6    7 1
    13    7    8 am
    14    7   30 1
    15    8    9 2
    16    8   10 1
    17   10   15 2
    18   10   11 1
    19   11   12 2
    20   11   16 1
    21   12   13 1
    22   12   31 1
    23   13   14 1
    24   13   15 1
    25   16   17 am
    26   16   32 1
    27   17   18 2
    28   17   19 1
    29   19   24 1
    30   19   20 1
    31   19   33 1
    32   20   21 1
    33   20   34 1
    34   20   35 1
    35   21   22 1
    36   21   36 1
    37   21   37 1
    38   22   23 1
    39   22   38 1
    40   22   39 1
    41   23   24 1
    42   23   40 1
    43   23   41 1
    44   24   42 1
    45   24   43 1
@<TRIPOS>MOLECULE
CHEMBL463579
   43    45     0     0     0
SMALL
USER_CHARGES

@<TRIPOS>ATOM
      1 C1          1.0717   -0.4531   -0.7664 C.ar      1 <0>        -0.0892
      2 C2          2.2564    0.2566   -0.7782 C.ar      1 <0>        -0.1320
      3 C3          2.3778    1.4157   -0.0303 C.ar      1 <0>         0.0884
      4 C4          1.3123    1.8655    0.7312 C.ar      1 <0>        -0.1324
      5 C5          0.1259    1.1586    0.7462 C.ar      1 <0>        -0.1130
      6 C6          0.0017   -0.0036   -0.0038 C.ar      1 <0>         0.1331
      7 N1         -1.1997   -0.7212    0.0096 N.am      1 <0>        -0.6682
      8 C7         -1.1835   -2.0645   -0.0995 C.2       1 <0>         0.6033
      9 O1         -0.1228   -2.6612   -0.1130 O.2       1 <0>        -0.5120
     10 C8         -2.4434   -2.8066   -0.2019 C.2       1 <0>        -0.0993
     11 C9         -2.5959   -4.1850   -0.3194 C.2       1 <0>         0.1357
     12 C10        -3.9822   -4.3970   -0.3822 C.2       1 <0>         0.0016
     13 N2         -4.5704   -3.2322   -0.3064 N.2       1 <0>        -0.2380
     14 H1         -3.9266   -1.3415   -0.1206 H         1 <0>         0.4479
     15 N3         -3.7114   -2.2843   -0.1952 N.pl3     1 <0>        -0.3759
     16 N4         -1.5869   -5.1496   -0.3651 N.am      1 <0>        -0.6352
     17 C11        -1.9062   -6.4538   -0.4821 C.2       1 <0>         0.5203
     18 O2         -3.0698   -6.7897   -0.5477 O.2       1 <0>        -0.5137
     19 C12        -0.8175   -7.4946   -0.5313 C.3       1 <0>        -0.1017
     20 C13         0.0899   -7.2269   -1.7338 C.3       1 <0>        -0.1136
     21 C14         1.1952   -8.2837   -1.7838 C.3       1 <0>        -0.1179
     22 C15         0.5674   -9.6725   -1.9178 C.3       1 <0>        -0.1238
     23 C16        -0.3400   -9.9401   -0.7154 C.3       1 <0>        -0.1206
     24 C17        -1.4454   -8.8834   -0.6654 C.3       1 <0>        -0.1001
     25 F1          3.5376    2.1084   -0.0433 F         1 <0>        -0.1370
     26 H2          0.9760   -1.3547   -1.3533 H         1 <0>         0.1455
     27 H3          3.0889   -0.0929   -1.3709 H         1 <0>         0.1419
     28 H4          1.4092    2.7695    1.3140 H         1 <0>         0.1423
     29 H5         -0.7046    1.5093    1.3408 H         1 <0>         0.1376
     30 H6         -2.0440   -0.2519    0.0975 H         1 <0>         0.4088
     31 H7         -4.4753   -5.3532   -0.4768 H         1 <0>         0.2121
     32 H8         -0.6563   -4.8809   -0.3126 H         1 <0>         0.4242
     33 H9         -0.2292   -7.4487    0.3851 H         1 <0>         0.1035
     34 H10        -0.4984   -7.2728   -2.6503 H         1 <0>         0.0708
     35 H11         0.5372   -6.2375   -1.6383 H         1 <0>         0.0684
     36 H12         1.8417   -8.0930   -2.6405 H         1 <0>         0.0679
     37 H13         1.7835   -8.2378   -0.8674 H         1 <0>         0.0660
     38 H14        -0.0209   -9.7183   -2.8343 H         1 <0>         0.0637
     39 H15         1.3548  -10.4253   -1.9535 H         1 <0>         0.0644
     40 H16        -0.7873  -10.9295   -0.8109 H         1 <0>         0.0679
     41 H17         0.2482   -9.8942    0.2011 H         1 <0>         0.0636
     42 H18        -2.0918   -9.0741    0.1913 H         1 <0>         0.0719
     43 H19        -2.0336   -8.9293   -1.5818 H         1 <0>         0.0725
@<TRIPOS>BOND
     1    1    6 ar
     2    1    2 ar
     3    1   26 1
     4    2    3 ar
     5    2   27 1
     6    3    4 ar
     7    3   25 1
     8    4    5 ar
     9    4   28 1
    10    5    6 ar
    11    5   29 1
    12    6    7 1
    13    7    8 am
    14    7   30 1
    15    8    9 2
    16    8   10 1
    17   10   11 2
    18   10   15 1
    19   11   12 1
    20   11   16 1
    21   12   13 2
    22   12   31 1
    23   13   15 1
    24   14   15 1
    25   16   17 am
    26   16   32 1
    27   17   18 2
    28   17   19 1
    29   19   24 1
    30   19   20 1
    31   19   33 1
    32   20   21 1
    33   20   34 1
    34   20   35 1
    35   21   22 1
    36   21   36 1
    37   21   37 1
    38   22   23 1
    39   22   38 1
    40   22   39 1
    41   23   24 1
    42   23   40 1
    43   23   41 1
    44   24   42 1
    45   24   43 1
@<TRIPOS>MOLECULE
CHEMBL379218
   50    53     0     0     0
SMALL
USER_CHARGES

@<TRIPOS>ATOM
      1 C1         -0.0184    1.5028    0.0103 C.3       1 <0>        -0.0807
      2 C2          0.0021   -0.0041    0.0020 C.2       1 <0>         0.1088
      3 C3          0.0083   -0.8581   -1.1820 C.ar      1 <0>        -0.1763
      4 C4         -0.0019   -0.6082   -2.5573 C.ar      1 <0>        -0.0083
      5 C5          0.0079   -1.6738   -3.4431 C.ar      1 <0>        -0.1061
      6 C6          0.0279   -2.9891   -2.9631 C.ar      1 <0>        -0.0534
      7 C7          0.0380   -3.2410   -1.6234 C.ar      1 <0>        -0.1371
      8 C8          0.0285   -2.1860   -0.7124 C.ar      1 <0>         0.1440
      9 N1          0.0337   -2.1193    0.6566 N.pl3     1 <0>        -0.5045
     10 H1          0.0468   -2.8812    1.2569 H         1 <0>         0.4444
     11 N2          0.0230   -0.7772    1.0497 N.2       1 <0>        -0.2435
     12 C9         -0.0034   -1.4202   -4.9053 C.ar      1 <0>        -0.0271
     13 C10         0.0004   -2.4846   -5.8096 C.ar      1 <0>        -0.1014
     14 C11        -0.0110   -2.1940   -7.1677 C.ar      1 <0>         0.0698
     15 C12        -0.0257   -0.8671   -7.5756 C.ar      1 <0>         0.0161
     16 N3         -0.0289    0.1132   -6.6940 N.ar      1 <0>        -0.4368
     17 C13        -0.0238   -0.1167   -5.3969 C.ar      1 <0>         0.0812
     18 O1         -0.0074   -3.1961   -8.0859 O.3       1 <0>        -0.3231
     19 C14        -0.0198   -2.8144   -9.4629 C.3       1 <0>         0.0274
     20 C15        -0.0136   -4.0682  -10.3397 C.3       1 <0>         0.0437
     21 H2          0.8359   -4.6958  -10.0703 H         1 <0>         0.1553
     22 C16         0.0989   -3.6615  -11.8104 C.3       1 <0>        -0.0972
     23 C17         0.2286   -4.8962  -12.6646 C.ar      1 <0>        -0.1303
     24 C18         1.4792   -5.4136  -12.9461 C.ar      1 <0>        -0.1030
     25 C19         1.5982   -6.5462  -13.7296 C.ar      1 <0>        -0.1053
     26 C20         0.4666   -7.1617  -14.2312 C.ar      1 <0>        -0.1014
     27 C21        -0.7840   -6.6448  -13.9490 C.ar      1 <0>        -0.1075
     28 C22        -0.9032   -5.5147  -13.1619 C.ar      1 <0>        -0.1401
     29 N4         -1.2605   -4.8167  -10.1327 N.4       1 <0>        -0.6365
     30 H3          1.0042    1.8801    0.0026 H         1 <0>         0.0878
     31 H4         -0.5455    1.8639   -0.8728 H         1 <0>         0.0842
     32 H5         -0.5286    1.8543    0.9071 H         1 <0>         0.0843
     33 H6         -0.0177    0.4067   -2.9264 H         1 <0>         0.1366
     34 H7          0.0350   -3.8127   -3.6617 H         1 <0>         0.1316
     35 H8          0.0531   -4.2604   -1.2670 H         1 <0>         0.1332
     36 H9          0.0123   -3.5071   -5.4619 H         1 <0>         0.1476
     37 H10        -0.0343   -0.6345   -8.6302 H         1 <0>         0.1565
     38 H11        -0.0314    0.7142   -4.7071 H         1 <0>         0.1670
     39 H12        -0.9167   -2.2306   -9.6700 H         1 <0>         0.0927
     40 H13         0.8631   -2.2138   -9.6814 H         1 <0>         0.1143
     41 H14        -0.7936   -3.1088  -12.1038 H         1 <0>         0.1038
     42 H15         0.9777   -3.0313  -11.9469 H         1 <0>         0.1255
     43 H16         2.3632   -4.9328  -12.5542 H         1 <0>         0.1308
     44 H17         2.5752   -6.9501  -13.9502 H         1 <0>         0.1335
     45 H18         0.5596   -8.0462  -14.8440 H         1 <0>         0.1330
     46 H19        -1.6681   -7.1255  -14.3411 H         1 <0>         0.1326
     47 H20        -1.8805   -5.1130  -12.9382 H         1 <0>         0.1228
     48 H21        -1.2564   -5.6436  -10.7110 H         1 <0>         0.4365
     49 H22        -1.3347   -5.0850   -9.1628 H         1 <0>         0.4422
     50 H23        -2.0469   -4.2358  -10.3821 H         1 <0>         0.4324
@<TRIPOS>BOND
     1    1    2 1
     2    1   30 1
     3    1   31 1
     4    1   32 1
     5    2   11 2
     6    2    3 1
     7    3    8 ar
     8    3    4 ar
     9    4    5 ar
    10    4   33 1
    11    5    6 ar
    12    5   12 1
    13    6    7 ar
    14    6   34 1
    15    7    8 ar
    16    7   35 1
    17    8    9 1
    18    9   10 1
    19    9   11 1
    20   12   17 ar
    21   12   13 ar
    22   13   14 ar
    23   13   36 1
    24   14   15 ar
    25   14   18 1
    26   15   16 ar
    27   15   37 1
    28   16   17 ar
    29   17   38 1
    30   18   19 1
    31   19   20 1
    32   19   39 1
    33   19   40 1
    34   20   21 1
    35   20   22 1
    36   20   29 1
    37   22   23 1
    38   22   41 1
    39   22   42 1
    40   23   28 ar
    41   23   24 ar
    42   24   25 ar
    43   24   43 1
    44   25   26 ar
    45   25   44 1
    46   26   27 ar
    47   26   45 1
    48   27   28 ar
    49   27   46 1
    50   28   47 1
    51   29   48 1
    52   29   49 1
    53   29   50 1
@<TRIPOS>MOLECULE
CHEMBL359591
   39    42     0     0     0
SMALL
USER_CHARGES

@<TRIPOS>ATOM
      1 C1          0.1246    1.1572    0.7803 C.ar      1 <0>        -0.1187
      2 C2          1.2847    1.8665    0.7998 C.ar      1 <0>        -0.0627
      3 C3          2.3803    1.4319    0.0366 C.ar      1 <0>        -0.1266
      4 C4          3.5989    2.1285    0.0236 C.ar      1 <0>         0.1539
      5 N1          4.5981    1.6866   -0.7042 N.ar      1 <0>        -0.4937
      6 C5          4.5165    0.5903   -1.4463 C.ar      1 <0>         0.0821
      7 C6          3.3796   -0.1564   -1.5025 C.ar      1 <0>        -0.1613
      8 C7          2.2639    0.2543   -0.7484 C.ar      1 <0>        -0.0015
      9 C8          1.0587   -0.4585   -0.7529 C.ar      1 <0>        -0.1507
     10 C9          0.0024   -0.0046    0.0088 C.ar      1 <0>         0.1968
     11 N2         -1.2029   -0.7117    0.0102 N.am      1 <0>        -0.6802
     12 C10        -2.3717   -0.0509    0.1271 C.2       1 <0>         0.6998
     13 O1         -2.3846    1.1648    0.1340 O.2       1 <0>        -0.5031
     14 N3         -3.5261   -0.7378    0.2365 N.am      1 <0>        -0.6266
     15 C11        -4.7315   -0.0563    0.3571 C.2       1 <0>         0.2761
     16 N4         -4.9376    1.2428    0.3773 N.2       1 <0>        -0.5133
     17 C12        -6.1554    1.7386    0.4992 C.2       1 <0>         0.0608
     18 C13        -7.1746    0.8509    0.6017 C.2       1 <0>        -0.1932
     19 S1         -6.2825   -0.6927    0.5053 S.3       1 <0>         0.1209
     20 C14        -8.6536    1.0985    0.7503 C.3       1 <0>        -0.0211
     21 C15        -9.3553    0.0971    1.6829 C.3       1 <0>        -0.1348
     22 C16       -10.5214    0.1009    0.6804 C.3       1 <0>        -0.1425
     23 C17        -9.4954    0.5048   -0.3915 C.3       1 <0>        -0.1335
     24 H1         -0.7139    1.4928    1.3724 H         1 <0>         0.1419
     25 H2          1.3630    2.7610    1.3999 H         1 <0>         0.1399
     26 H3          3.7142    3.0272    0.6113 H         1 <0>         0.1645
     27 H4          5.3762    0.2814   -2.0224 H         1 <0>         0.1537
     28 H5          3.3343   -1.0457   -2.1136 H         1 <0>         0.1380
     29 H6          0.9577   -1.3556   -1.3458 H         1 <0>         0.1360
     30 H7         -1.1983   -1.6781   -0.0729 H         1 <0>         0.4114
     31 H8         -3.5158   -1.7077    0.2311 H         1 <0>         0.4239
     32 H9         -6.3315    2.8040    0.5168 H         1 <0>         0.1751
     33 H10        -8.8884    2.1401    0.9698 H         1 <0>         0.1169
     34 H11        -8.8450   -0.8633    1.7555 H         1 <0>         0.0816
     35 H12        -9.6145    0.5144    2.6559 H         1 <0>         0.0755
     36 H13       -10.9595   -0.8836    0.5166 H         1 <0>         0.0722
     37 H14       -11.2679    0.8693    0.8819 H         1 <0>         0.0854
     38 H15        -9.8679    1.2512   -1.0931 H         1 <0>         0.0749
     39 H16        -9.0235   -0.3442   -0.8860 H         1 <0>         0.0823
@<TRIPOS>BOND
     1    1   10 ar
     2    1    2 ar
     3    1   24 1
     4    2    3 ar
     5    2   25 1
     6    3    8 ar
     7    3    4 ar
     8    4    5 ar
     9    4   26 1
    10    5    6 ar
    11    6    7 ar
    12    6   27 1
    13    7    8 ar
    14    7   28 1
    15    8    9 ar
    16    9   10 ar
    17    9   29 1
    18   10   11 1
    19   11   12 am
    20   11   30 1
    21   12   13 2
    22   12   14 am
    23   14   15 1
    24   14   31 1
    25   15   19 1
    26   15   16 2
    27   16   17 1
    28   17   18 2
    29   17   32 1
    30   18   19 1
    31   18   20 1
    32   20   23 1
    33   20   21 1
    34   20   33 1
    35   21   22 1
    36   21   34 1
    37   21   35 1
    38   22   23 1
    39   22   36 1
    40   22   37 1
    41   23   38 1
    42   23   39 1
@<TRIPOS>MOLECULE
CHEMBL359591
   40    43     0     0     0
SMALL
USER_CHARGES

@<TRIPOS>ATOM
      1 C1          0.1246    1.1572    0.7803 C.ar      1 <0>        -0.0990
      2 C2          1.2847    1.8665    0.7998 C.ar      1 <0>        -0.0419
      3 C3          2.3803    1.4319    0.0366 C.ar      1 <0>        -0.1200
      4 C4          3.5989    2.1285    0.0236 C.ar      1 <0>         0.2171
      5 N1          4.5981    1.6866   -0.7042 N.ar      1 <0>        -0.4547
      6 C5          4.5165    0.5903   -1.4463 C.ar      1 <0>         0.0605
      7 C6          3.3796   -0.1564   -1.5025 C.ar      1 <0>        -0.0862
      8 C7          2.2639    0.2543   -0.7484 C.ar      1 <0>         0.0363
      9 C8          1.0587   -0.4585   -0.7529 C.ar      1 <0>        -0.1632
     10 C9          0.0024   -0.0046    0.0088 C.ar      1 <0>         0.2631
     11 N2         -1.2029   -0.7117    0.0102 N.am      1 <0>        -0.6805
     12 C10        -2.3717   -0.0509    0.1271 C.2       1 <0>         0.7020
     13 O1         -2.3846    1.1648    0.1340 O.2       1 <0>        -0.4990
     14 N3         -3.5261   -0.7378    0.2365 N.am      1 <0>        -0.6194
     15 C11        -4.7315   -0.0563    0.3571 C.2       1 <0>         0.2548
     16 N4         -4.9376    1.2428    0.3773 N.2       1 <0>        -0.5089
     17 C12        -6.1554    1.7386    0.4992 C.2       1 <0>         0.0534
     18 C13        -7.1746    0.8509    0.6017 C.2       1 <0>        -0.1780
     19 S1         -6.2825   -0.6927    0.5053 S.3       1 <0>         0.1402
     20 C14        -8.6536    1.0985    0.7503 C.3       1 <0>        -0.0259
     21 C15        -9.3553    0.0971    1.6829 C.3       1 <0>        -0.1347
     22 C16       -10.5214    0.1009    0.6804 C.3       1 <0>        -0.1425
     23 C17        -9.4954    0.5048   -0.3915 C.3       1 <0>        -0.1331
     24 H1         -0.7139    1.4928    1.3724 H         1 <0>         0.1638
     25 H2          1.3630    2.7610    1.3999 H         1 <0>         0.1620
     26 H3          3.7142    3.0272    0.6113 H         1 <0>         0.2145
     27 H4          5.3762    0.2814   -2.0224 H         1 <0>         0.2018
     28 H5          3.3343   -1.0457   -2.1136 H         1 <0>         0.1819
     29 H6          0.9577   -1.3556   -1.3458 H         1 <0>         0.1594
     30 H7         -1.1983   -1.6781   -0.0729 H         1 <0>         0.4216
     31 H8         -3.5158   -1.7077    0.2311 H         1 <0>         0.4275
     32 H9         -6.3315    2.8040    0.5168 H         1 <0>         0.1781
     33 H10        -8.8884    2.1401    0.9698 H         1 <0>         0.1196
     34 H11        -8.8450   -0.8633    1.7555 H         1 <0>         0.0813
     35 H12        -9.6145    0.5144    2.6559 H         1 <0>         0.0775
     36 H13       -10.9595   -0.8836    0.5166 H         1 <0>         0.0741
     37 H14       -11.2679    0.8693    0.8819 H         1 <0>         0.0874
     38 H15        -9.8679    1.2512   -1.0931 H         1 <0>         0.0768
     39 H16        -9.0235   -0.3442   -0.8860 H         1 <0>         0.0822
     40 H17         5.4314    2.1831   -0.6993 H         1 <0>         0.4500
@<TRIPOS>BOND
     1    1   10 ar
     2    1    2 ar
     3    1   24 1
     4    2    3 ar
     5    2   25 1
     6    3    8 ar
     7    3    4 ar
     8    4    5 ar
     9    4   26 1
    10    5    6 ar
    11    5   40 1
    12    6    7 ar
    13    6   27 1
    14    7    8 ar
    15    7   28 1
    16    8    9 ar
    17    9   10 ar
    18    9   29 1
    19   10   11 1
    20   11   12 am
    21   11   30 1
    22   12   13 2
    23   12   14 am
    24   14   15 1
    25   14   31 1
    26   15   19 1
    27   15   16 2
    28   16   17 1
    29   17   18 2
    30   17   32 1
    31   18   19 1
    32   18   20 1
    33   20   23 1
    34   20   21 1
    35   20   33 1
    36   21   22 1
    37   21   34 1
    38   21   35 1
    39   22   23 1
    40   22   36 1
    41   22   37 1
    42   23   38 1
    43   23   39 1
@<TRIPOS>MOLECULE
CHEMBL93892
   60    63     0     0     0
SMALL
USER_CHARGES

@<TRIPOS>ATOM
      1 C1          0.1702    1.1190    0.4842 C.3       1 <0>        -0.1632
      2 C2          0.1341   -0.3797    0.1783 C.3       1 <0>         0.1350
      3 C3          0.9166   -1.1383    1.2521 C.3       1 <0>        -0.1628
      4 N1         -1.2557   -0.8427    0.1682 N.pl3     1 <0>        -0.4709
      5 C4         -2.1372   -0.7741    1.2074 C.2       1 <0>         0.2393
      6 N2         -3.2833   -1.2764    0.8515 N.2       1 <0>        -0.4567
      7 C5         -3.2113   -1.6983   -0.4348 C.ar      1 <0>        -0.1507
      8 C6         -1.9116   -1.4195   -0.8898 C.ar      1 <0>         0.3504
      9 N3         -1.5808   -1.7347   -2.1380 N.ar      1 <0>        -0.6071
     10 C7         -2.4629   -2.3010   -2.9456 C.ar      1 <0>         0.6235
     11 N4         -3.7011   -2.5789   -2.5588 N.ar      1 <0>        -0.6094
     12 C8         -4.1132   -2.3051   -1.3257 C.ar      1 <0>         0.5331
     13 N5         -5.4081   -2.5968   -0.9317 N.pl3     1 <0>        -0.6375
     14 C9         -6.2549   -3.3064   -1.7861 C.ar      1 <0>         0.1622
     15 C10        -5.7455   -4.3332   -2.5728 C.ar      1 <0>        -0.1078
     16 C11        -6.5797   -5.0351   -3.4164 C.ar      1 <0>        -0.0902
     17 C12        -7.9350   -4.7147   -3.4803 C.ar      1 <0>        -0.0632
     18 C13        -8.4437   -3.6847   -2.6906 C.ar      1 <0>        -0.0883
     19 C14        -7.6071   -2.9887   -1.8444 C.ar      1 <0>        -0.1427
     20 C15        -8.8344   -5.4684   -4.3878 C.ar      1 <0>        -0.0398
     21 C16        -8.3285   -6.5019   -5.1742 C.ar      1 <0>        -0.1132
     22 C17        -9.1699   -7.1997   -6.0167 C.ar      1 <0>        -0.1166
     23 C18       -10.5129   -6.8750   -6.0815 C.ar      1 <0>        -0.1218
     24 C19       -11.0204   -5.8499   -5.3037 C.ar      1 <0>        -0.1169
     25 C20       -10.1895   -5.1494   -4.4530 C.ar      1 <0>        -0.1141
     26 N6         -2.0803   -2.6141   -4.2396 N.pl3     1 <0>        -0.5617
     27 C21        -3.0369   -3.2417   -5.1547 C.3       1 <0>         0.1395
     28 C22        -3.8012   -2.1569   -5.9162 C.3       1 <0>         0.0600
     29 O1         -2.8957   -1.4344   -6.7529 O.3       1 <0>        -0.5713
     30 C23        -0.7191   -2.3177   -4.6930 C.3       1 <0>         0.1395
     31 C24         0.1861   -3.5178   -4.4080 C.3       1 <0>         0.0602
     32 O2         -0.2397   -4.6329   -5.1938 O.3       1 <0>        -0.5703
     33 H1          1.2043    1.4635    0.4917 H         1 <0>         0.0799
     34 H2         -0.3873    1.6595   -0.2808 H         1 <0>         0.0632
     35 H3         -0.2808    1.3017    1.4596 H         1 <0>         0.0658
     36 H4          0.5851   -0.5623   -0.7971 H         1 <0>         0.1060
     37 H5          0.4657   -0.9556    2.2275 H         1 <0>         0.0659
     38 H6          0.8910   -2.2060    1.0341 H         1 <0>         0.0628
     39 H7          1.9507   -0.7938    1.2596 H         1 <0>         0.0798
     40 H8         -1.9160   -0.3638    2.1816 H         1 <0>         0.2156
     41 H9         -5.7272   -2.3083   -0.0623 H         1 <0>         0.4280
     42 H10        -4.6955   -4.5808   -2.5232 H         1 <0>         0.1321
     43 H11        -6.1835   -5.8325   -4.0277 H         1 <0>         0.1273
     44 H12        -9.4933   -3.4346   -2.7389 H         1 <0>         0.1283
     45 H13        -8.0016   -2.1937   -1.2291 H         1 <0>         0.1267
     46 H14        -7.2800   -6.7559   -5.1246 H         1 <0>         0.1250
     47 H15        -8.7789   -8.0005   -6.6268 H         1 <0>         0.1236
     48 H16       -11.1677   -7.4237   -6.7423 H         1 <0>         0.1219
     49 H17       -12.0698   -5.6004   -5.3586 H         1 <0>         0.1234
     50 H18       -10.5877   -4.3527   -3.8423 H         1 <0>         0.1244
     51 H19        -2.5011   -3.8737   -5.8629 H         1 <0>         0.0935
     52 H20        -3.7398   -3.8494   -4.5849 H         1 <0>         0.0980
     53 H21        -4.5732   -2.6198   -6.5308 H         1 <0>         0.0535
     54 H22        -4.2644   -1.4722   -5.2057 H         1 <0>         0.0465
     55 H23        -3.3125   -0.7291   -7.2666 H         1 <0>         0.3767
     56 H24        -0.7288   -2.1162   -5.7642 H         1 <0>         0.0937
     57 H25        -0.3416   -1.4437   -4.1623 H         1 <0>         0.0962
     58 H26         1.2153   -3.2653   -4.6632 H         1 <0>         0.0528
     59 H27         0.1266   -3.7747   -3.3504 H         1 <0>         0.0460
     60 H28         0.2905   -5.4310   -5.0637 H         1 <0>         0.3767
@<TRIPOS>BOND
     1    1    2 1
     2    1   33 1
     3    1   34 1
     4    1   35 1
     5    2    3 1
     6    2    4 1
     7    2   36 1
     8    3   37 1
     9    3   38 1
    10    3   39 1
    11    4    8 1
    12    4    5 1
    13    5    6 2
    14    5   40 1
    15    6    7 1
    16    7   12 ar
    17    7    8 ar
    18    8    9 ar
    19    9   10 ar
    20   10   11 ar
    21   10   26 1
    22   11   12 ar
    23   12   13 1
    24   13   14 1
    25   13   41 1
    26   14   19 ar
    27   14   15 ar
    28   15   16 ar
    29   15   42 1
    30   16   17 ar
    31   16   43 1
    32   17   18 ar
    33   17   20 1
    34   18   19 ar
    35   18   44 1
    36   19   45 1
    37   20   25 ar
    38   20   21 ar
    39   21   22 ar
    40   21   46 1
    41   22   23 ar
    42   22   47 1
    43   23   24 ar
    44   23   48 1
    45   24   25 ar
    46   24   49 1
    47   25   50 1
    48   26   27 1
    49   26   30 1
    50   27   28 1
    51   27   51 1
    52   27   52 1
    53   28   29 1
    54   28   53 1
    55   28   54 1
    56   29   55 1
    57   30   31 1
    58   30   56 1
    59   30   57 1
    60   31   32 1
    61   31   58 1
    62   31   59 1
    63   32   60 1
@<TRIPOS>MOLECULE
CHEMBL510578
   37    39     0     0     0
SMALL
USER_CHARGES

@<TRIPOS>ATOM
      1 C1         -0.0167    1.3788    0.0096 C.ar      1 <0>        -0.0383
      2 C2          1.1668    2.0946    0.0022 C.ar      1 <0>        -0.1631
      3 C3          2.3797    1.4320   -0.0134 C.ar      1 <0>         0.1680
      4 C4          2.4080    0.0333   -0.0211 C.ar      1 <0>        -0.2036
      5 C5          1.2060   -0.6828   -0.0130 C.ar      1 <0>         0.1680
      6 C6          0.0021   -0.0041    0.0020 C.ar      1 <0>        -0.1630
      7 F1          1.2222   -2.0337   -0.0208 F         1 <0>        -0.1191
      8 C7          3.6978   -0.6825   -0.0382 C.2       1 <0>         0.5699
      9 O1          4.2403   -0.9832    1.0078 O.2       1 <0>        -0.5061
     10 N1          4.2750   -1.0033   -1.2131 N.am      1 <0>        -0.6182
     11 C8          5.5015   -1.6840   -1.2294 C.2       1 <0>         0.0814
     12 C9          6.2300   -2.0947   -0.1573 C.2       1 <0>        -0.0213
     13 N2          7.3401   -2.7086   -0.6417 N.pl3     1 <0>        -0.3700
     14 H1          8.0400   -3.1007   -0.0964 H         1 <0>         0.4549
     15 N3          7.3298   -2.6955   -1.9261 N.2       1 <0>        -0.2388
     16 C10         6.2416   -2.0952   -2.3681 C.2       1 <0>        -0.0318
     17 C11         5.8667   -1.8872   -3.7794 C.2       1 <0>         0.6092
     18 O2          4.8314   -1.3123   -4.0551 O.2       1 <0>        -0.5396
     19 N4          6.6718   -2.3344   -4.7635 N.am      1 <0>        -0.7112
     20 C12         6.2995   -2.1279   -6.1652 C.3       1 <0>         0.1502
     21 C13         7.3765   -2.7261   -7.0724 C.3       1 <0>        -0.1743
     22 C14         8.1515   -1.7659   -7.9770 C.3       1 <0>        -0.1759
     23 C15         7.1155   -2.7167   -8.5800 C.3       1 <0>        -0.1685
     24 F2          3.5345    2.1331   -0.0215 F         1 <0>        -0.1192
     25 H2         -0.9609    1.9029    0.0260 H         1 <0>         0.1530
     26 H3          1.1430    3.1743    0.0082 H         1 <0>         0.1533
     27 H4         -0.9267   -0.5552    0.0082 H         1 <0>         0.1533
     28 H5          3.8423   -0.7635   -2.0475 H         1 <0>         0.4280
     29 H6          5.9743   -1.9582    0.8830 H         1 <0>         0.2093
     30 H7          7.4978   -2.7931   -4.5435 H         1 <0>         0.4096
     31 H8          5.3453   -2.6160   -6.3634 H         1 <0>         0.0760
     32 H9          6.2094   -1.0599   -6.3637 H         1 <0>         0.0735
     33 H10         7.9181   -3.5778   -6.6608 H         1 <0>         0.1118
     34 H11         7.8940   -0.7080   -7.9258 H         1 <0>         0.0976
     35 H12         9.2032   -1.9856   -8.1605 H         1 <0>         0.0971
     36 H13         7.4856   -3.5620   -9.1601 H         1 <0>         0.0992
     37 H14         6.1764   -2.2843   -8.9255 H         1 <0>         0.0988
@<TRIPOS>BOND
     1    1    6 ar
     2    1    2 ar
     3    1   25 1
     4    2    3 ar
     5    2   26 1
     6    3    4 ar
     7    3   24 1
     8    4    5 ar
     9    4    8 1
    10    5    6 ar
    11    5    7 1
    12    6   27 1
    13    8    9 2
    14    8   10 am
    15   10   11 1
    16   10   28 1
    17   11   16 1
    18   11   12 2
    19   12   13 1
    20   12   29 1
    21   13   14 1
    22   13   15 1
    23   15   16 2
    24   16   17 1
    25   17   18 2
    26   17   19 am
    27   19   20 1
    28   19   30 1
    29   20   21 1
    30   20   31 1
    31   20   32 1
    32   21   23 1
    33   21   22 1
    34   21   33 1
    35   22   23 1
    36   22   34 1
    37   22   35 1
    38   23   36 1
    39   23   37 1
@<TRIPOS>MOLECULE
CHEMBL510578
   37    39     0     0     0
SMALL
USER_CHARGES

@<TRIPOS>ATOM
      1 C1         -0.0167    1.3789    0.0096 C.ar      1 <0>        -0.0377
      2 C2          1.1667    2.0947    0.0022 C.ar      1 <0>        -0.1630
      3 C3          2.3797    1.4322   -0.0129 C.ar      1 <0>         0.1687
      4 C4          2.4080    0.0333   -0.0207 C.ar      1 <0>        -0.2052
      5 C5          1.2060   -0.6828   -0.0130 C.ar      1 <0>         0.1687
      6 C6          0.0021   -0.0041    0.0020 C.ar      1 <0>        -0.1630
      7 F1          1.2221   -2.0337   -0.0208 F         1 <0>        -0.1188
      8 C7          3.6977   -0.6824   -0.0373 C.2       1 <0>         0.5729
      9 O1          4.2398   -0.9830    1.0089 O.2       1 <0>        -0.4936
     10 N1          4.2754   -1.0032   -1.2120 N.am      1 <0>        -0.6206
     11 C8          5.4958   -1.6804   -1.2277 C.2       1 <0>         0.1225
     12 C9          6.2525   -2.1007   -0.1222 C.2       1 <0>         0.0047
     13 N2          7.3253   -2.6959   -0.5729 N.2       1 <0>        -0.2421
     14 H1          8.0483   -3.0965   -2.4007 H         1 <0>         0.4484
     15 N3          7.3460   -2.7070   -1.8567 N.pl3     1 <0>        -0.3735
     16 C10         6.2215   -2.0898   -2.3424 C.2       1 <0>        -0.0851
     17 C11         5.8594   -1.8973   -3.7498 C.2       1 <0>         0.5996
     18 O2          4.8250   -1.3252   -4.0392 O.2       1 <0>        -0.5302
     19 N4          6.6720   -2.3540   -4.7232 N.am      1 <0>        -0.7222
     20 C12         6.3101   -2.1617   -6.1298 C.3       1 <0>         0.1514
     21 C13         7.3941   -2.7685   -7.0229 C.3       1 <0>        -0.1771
     22 C14         8.1754   -1.8170   -7.9312 C.3       1 <0>        -0.1756
     23 C15         7.1443   -2.7743   -8.5323 C.3       1 <0>        -0.1668
     24 F2          3.5345    2.1332   -0.0206 F         1 <0>        -0.1188
     25 H2         -0.9609    1.9029    0.0260 H         1 <0>         0.1531
     26 H3          1.1430    3.1744    0.0078 H         1 <0>         0.1535
     27 H4         -0.9267   -0.5552    0.0082 H         1 <0>         0.1535
     28 H5          3.8430   -0.7634   -2.0465 H         1 <0>         0.4268
     29 H6          5.9942   -1.9571    0.9165 H         1 <0>         0.2110
     30 H7          7.4964   -2.8101   -4.4926 H         1 <0>         0.3979
     31 H8          5.3575   -2.6522   -6.3302 H         1 <0>         0.0780
     32 H9          6.2211   -1.0958   -6.3395 H         1 <0>         0.0756
     33 H10         7.9328   -3.6158   -6.5986 H         1 <0>         0.1110
     34 H11         7.9172   -0.7588   -7.8925 H         1 <0>         0.0983
     35 H12         9.2286   -2.0381   -8.1046 H         1 <0>         0.0978
     36 H13         7.5191   -3.6251   -9.1012 H         1 <0>         0.1002
     37 H14         6.2077   -2.3458   -8.8891 H         1 <0>         0.0997
@<TRIPOS>BOND
     1    1    6 ar
     2    1    2 ar
     3    1   25 1
     4    2    3 ar
     5    2   26 1
     6    3    4 ar
     7    3   24 1
     8    4    5 ar
     9    4    8 1
    10    5    6 ar
    11    5    7 1
    12    6   27 1
    13    8    9 2
    14    8   10 am
    15   10   28 1
    16   10   11 1
    17   11   12 1
    18   11   16 2
    19   12   13 2
    20   12   29 1
    21   13   15 1
    22   14   15 1
    23   15   16 1
    24   16   17 1
    25   17   18 2
    26   17   19 am
    27   19   20 1
    28   19   30 1
    29   20   21 1
    30   20   31 1
    31   20   32 1
    32   21   23 1
    33   21   22 1
    34   21   33 1
    35   22   23 1
    36   22   34 1
    37   22   35 1
    38   23   36 1
    39   23   37 1
@<TRIPOS>MOLECULE
CHEMBL190091
   42    45     0     0     0
SMALL
USER_CHARGES

@<TRIPOS>ATOM
      1 C1          0.0326    0.2257    0.8500 C.3       1 <0>        -0.1413
      2 C2         -0.1538   -1.2009    0.3294 C.3       1 <0>        -0.0491
      3 C3          0.6307   -1.3771   -0.9451 C.2       1 <0>         0.1685
      4 C4          0.1548   -1.1289   -2.2462 C.2       1 <0>        -0.3349
      5 C5          1.2018   -1.4193   -3.1357 C.2       1 <0>         0.3637
      6 N1          1.0030   -1.2633   -4.4535 N.2       1 <0>        -0.4978
      7 C6         -0.1337   -0.8499   -4.9327 C.2       1 <0>         0.4436
      8 N2         -1.1999   -0.5458   -4.1503 N.am      1 <0>        -0.6468
      9 C7         -1.1152   -0.6654   -2.8046 C.2       1 <0>         0.5809
     10 O1         -2.0614   -0.3974   -2.0855 O.2       1 <0>        -0.5101
     11 C8         -0.2726   -0.7015   -6.4259 C.3       1 <0>        -0.0271
     12 C9          1.0585   -0.9626   -7.0826 C.ar      1 <0>         0.1438
     13 C10         1.1639   -1.9504   -8.0438 C.ar      1 <0>        -0.1609
     14 C11         2.3929   -2.1825   -8.6418 C.ar      1 <0>        -0.0725
     15 C12         3.4747   -1.4090   -8.2489 C.ar      1 <0>        -0.1695
     16 C13         3.2931   -0.4393   -7.2813 C.ar      1 <0>         0.1060
     17 N3          2.1077   -0.2425   -6.7376 N.ar      1 <0>        -0.4531
     18 N4          2.2554   -1.8244   -2.3757 N.pl3     1 <0>        -0.3161
     19 N5          1.8689   -1.7804   -1.0301 N.2       1 <0>        -0.2513
     20 C14         3.5133   -2.2134   -2.8565 C.ar      1 <0>         0.1722
     21 C15         4.6626   -1.5966   -2.3780 C.ar      1 <0>        -0.0031
     22 C16         5.9016   -1.9824   -2.8541 C.ar      1 <0>        -0.0896
     23 C17         5.9979   -2.9815   -3.8067 C.ar      1 <0>        -0.0070
     24 C18         4.8550   -3.5977   -4.2851 C.ar      1 <0>        -0.0879
     25 C19         3.6136   -3.2206   -3.8083 C.ar      1 <0>        -0.0028
     26 Cl1         2.1809   -3.9995   -4.4034 Cl        1 <0>        -0.0177
     27 Cl2         7.5557   -3.4625   -4.4030 Cl        1 <0>        -0.0313
     28 Cl3         4.5427   -0.3423   -1.1839 Cl        1 <0>        -0.0146
     29 H1          1.0896    0.4057    1.0461 H         1 <0>         0.0561
     30 H2         -0.3241    0.9347    0.1028 H         1 <0>         0.0580
     31 H3         -0.5348    0.3532    1.7719 H         1 <0>         0.0682
     32 H4          0.2029   -1.9098    1.0766 H         1 <0>         0.0855
     33 H5         -1.2108   -1.3808    0.1333 H         1 <0>         0.0966
     34 H6         -1.0067   -1.4175   -6.7954 H         1 <0>         0.1221
     35 H7         -0.6016    0.3106   -6.6614 H         1 <0>         0.1238
     36 H8          0.3000   -2.5342   -8.3250 H         1 <0>         0.1329
     37 H9          2.5052   -2.9479   -9.3954 H         1 <0>         0.1336
     38 H10         4.4469   -1.5626   -8.6933 H         1 <0>         0.1330
     39 H11         4.1305    0.1674   -6.9699 H         1 <0>         0.1511
     40 H12         6.7954   -1.5033   -2.4826 H         1 <0>         0.1614
     41 H13         4.9333   -4.3772   -5.0285 H         1 <0>         0.1596
     42 H14        -2.0262   -0.2413   -4.5570 H         1 <0>         0.4238
@<TRIPOS>BOND
     1    1    2 1
     2    1   29 1
     3    1   30 1
     4    1   31 1
     5    2    3 1
     6    2   32 1
     7    2   33 1
     8    3   19 2
     9    3    4 1
    10    4    9 1
    11    4    5 2
    12    5    6 1
    13    5   18 1
    14    6    7 2
    15    7    8 1
    16    7   11 1
    17    8    9 am
    18    8   42 1
    19    9   10 2
    20   11   12 1
    21   11   34 1
    22   11   35 1
    23   12   17 ar
    24   12   13 ar
    25   13   14 ar
    26   13   36 1
    27   14   15 ar
    28   14   37 1
    29   15   16 ar
    30   15   38 1
    31   16   17 ar
    32   16   39 1
    33   18   19 1
    34   18   20 1
    35   20   25 ar
    36   20   21 ar
    37   21   22 ar
    38   21   28 1
    39   22   23 ar
    40   22   40 1
    41   23   24 ar
    42   23   27 1
    43   24   25 ar
    44   24   41 1
    45   25   26 1
@<TRIPOS>MOLECULE
CHEMBL190091
   41    44     0     0     0
SMALL
USER_CHARGES

@<TRIPOS>ATOM
      1 C1         -0.3971    1.8483    0.3271 C.3       1 <0>        -0.1340
      2 C2         -0.1648    0.3632    0.0417 C.3       1 <0>        -0.0404
      3 C3         -1.4874   -0.3590    0.0307 C.2       1 <0>         0.1684
      4 C4         -2.1142   -0.9500    1.1501 C.ar      1 <0>        -0.3583
      5 C5         -3.3246   -1.5122    0.6959 C.ar      1 <0>         0.3787
      6 N1         -4.1100   -2.1366    1.5703 N.ar      1 <0>        -0.5892
      7 C6         -3.7640   -2.2280    2.8358 C.ar      1 <0>         0.4005
      8 N2         -2.6399   -1.7161    3.3059 N.ar      1 <0>        -0.6295
      9 C7         -1.7914   -1.0753    2.5125 C.ar      1 <0>         0.5006
     10 O1         -0.6422   -0.5547    3.0032 O.3       1 <0>        -0.6714
     11 C8         -4.6864   -2.9447    3.7880 C.3       1 <0>         0.0027
     12 C9         -4.3238   -4.4067    3.8338 C.ar      1 <0>         0.1523
     13 C10        -4.0462   -5.0039    5.0491 C.ar      1 <0>        -0.1631
     14 C11        -3.7137   -6.3494    5.0803 C.ar      1 <0>        -0.0784
     15 C12        -3.6728   -7.0470    3.8825 C.ar      1 <0>        -0.1861
     16 C13        -3.9627   -6.3827    2.7061 C.ar      1 <0>         0.0986
     17 N3         -4.2804   -5.1027    2.7148 N.ar      1 <0>        -0.4605
     18 N4         -3.3943   -1.2539   -0.6434 N.pl3     1 <0>        -0.3610
     19 N5         -2.2479   -0.5385   -1.0119 N.2       1 <0>        -0.2902
     20 C14        -4.4361   -1.6346   -1.5005 C.ar      1 <0>         0.2148
     21 C15        -5.7477   -1.2907   -1.1973 C.ar      1 <0>        -0.0142
     22 C16        -6.7729   -1.6676   -2.0444 C.ar      1 <0>        -0.0875
     23 C17        -6.4939   -2.3866   -3.1934 C.ar      1 <0>        -0.0253
     24 C18        -5.1886   -2.7305   -3.4980 C.ar      1 <0>        -0.0910
     25 C19        -4.1586   -2.3515   -2.6577 C.ar      1 <0>        -0.0179
     26 Cl1        -2.5206   -2.7772   -3.0443 Cl        1 <0>        -0.0259
     27 Cl2        -7.7842   -2.8586   -4.2545 Cl        1 <0>        -0.0524
     28 Cl3        -6.0986   -0.3892    0.2441 Cl        1 <0>        -0.0162
     29 H1          0.5595    2.3707    0.3351 H         1 <0>         0.0562
     30 H2         -1.0358    2.2717   -0.4480 H         1 <0>         0.0477
     31 H3         -0.8805    1.9605    1.2976 H         1 <0>         0.0607
     32 H4          0.3185    0.2510   -0.9287 H         1 <0>         0.0674
     33 H5          0.4739   -0.0602    0.8169 H         1 <0>         0.0962
     34 H6         -4.5861   -2.5141    4.7843 H         1 <0>         0.0995
     35 H7         -5.7161   -2.8362    3.4473 H         1 <0>         0.1000
     36 H8         -4.0873   -4.4295    5.9628 H         1 <0>         0.1356
     37 H9         -3.4915   -6.8424    6.0151 H         1 <0>         0.1304
     38 H10        -3.4172   -8.0963    3.8693 H         1 <0>         0.1284
     39 H11        -3.9330   -6.9189    1.7690 H         1 <0>         0.1489
     40 H12        -7.7926   -1.4009   -1.8091 H         1 <0>         0.1528
     41 H13        -4.9740   -3.2920   -4.3952 H         1 <0>         0.1520
@<TRIPOS>BOND
     1    1    2 1
     2    1   29 1
     3    1   30 1
     4    1   31 1
     5    2    3 1
     6    2   32 1
     7    2   33 1
     8    3   19 2
     9    3    4 1
    10    4    9 ar
    11    4    5 ar
    12    5    6 ar
    13    5   18 1
    14    6    7 ar
    15    7    8 ar
    16    7   11 1
    17    8    9 ar
    18    9   10 1
    19   11   12 1
    20   11   34 1
    21   11   35 1
    22   12   17 ar
    23   12   13 ar
    24   13   14 ar
    25   13   36 1
    26   14   15 ar
    27   14   37 1
    28   15   16 ar
    29   15   38 1
    30   16   17 ar
    31   16   39 1
    32   18   19 1
    33   18   20 1
    34   20   25 ar
    35   20   21 ar
    36   21   22 ar
    37   21   28 1
    38   22   23 ar
    39   22   40 1
    40   23   24 ar
    41   23   27 1
    42   24   25 ar
    43   24   41 1
    44   25   26 1
@<TRIPOS>MOLECULE
CHEMBL327629
   56    59     0     0     0
SMALL
USER_CHARGES

@<TRIPOS>ATOM
      1 C1         -0.0187    1.5258    0.0104 C.3       1 <0>        -0.1629
      2 C2          0.0021   -0.0041    0.0020 C.3       1 <0>         0.1354
      3 C3          0.7421   -0.5109    1.2415 C.3       1 <0>        -0.1625
      4 N1         -1.3723   -0.5112    0.0124 N.pl3     1 <0>        -0.4709
      5 C4         -2.3128   -0.2749    0.9723 C.2       1 <0>         0.2314
      6 N2         -3.4234   -0.8781    0.6638 N.2       1 <0>        -0.4542
      7 C5         -3.2674   -1.5381   -0.5102 C.ar      1 <0>        -0.1567
      8 C6         -1.9517   -1.3058   -0.9441 C.ar      1 <0>         0.3484
      9 N3         -1.5421   -1.8450   -2.0880 N.ar      1 <0>        -0.6144
     10 C7         -2.3616   -2.5894   -2.8127 C.ar      1 <0>         0.6275
     11 N4         -3.6124   -2.8321   -2.4423 N.ar      1 <0>        -0.6249
     12 C8         -4.1011   -2.3388   -1.3098 C.ar      1 <0>         0.5415
     13 N5         -5.4072   -2.5960   -0.9325 N.pl3     1 <0>        -0.6916
     14 C9         -6.2626   -3.4328   -1.7777 C.3       1 <0>         0.1763
     15 C10        -7.6256   -3.5562   -1.1470 C.ar      1 <0>        -0.1039
     16 C11        -7.8839   -4.5830   -0.2580 C.ar      1 <0>        -0.0851
     17 C12        -9.1325   -4.7001    0.3236 C.ar      1 <0>        -0.1020
     18 C13       -10.1289   -3.7878    0.0161 C.ar      1 <0>         0.0421
     19 C14        -9.8687   -2.7535   -0.8794 C.ar      1 <0>         0.0298
     20 C15        -8.6133   -2.6390   -1.4540 C.ar      1 <0>        -0.0789
     21 O1        -10.9980   -1.9986   -1.0140 O.3       1 <0>        -0.3075
     22 C16       -12.0698   -2.8168   -0.5090 C.3       1 <0>         0.2128
     23 O2        -11.4212   -3.6810    0.4426 O.3       1 <0>        -0.3076
     24 N6         -1.8979   -3.1336   -3.9991 N.pl3     1 <0>        -0.5641
     25 C17        -2.7840   -3.9617   -4.8209 C.3       1 <0>         0.1401
     26 C18        -3.5317   -3.0742   -5.8180 C.3       1 <0>         0.0591
     27 O3         -2.5992   -2.4953   -6.7330 O.3       1 <0>        -0.5712
     28 C19        -0.5213   -2.8812   -4.4320 C.3       1 <0>         0.1403
     29 C20         0.3972   -3.9691   -3.8718 C.3       1 <0>         0.0600
     30 O4          0.0461   -5.2304   -4.4444 O.3       1 <0>        -0.5707
     31 H1          1.0039    1.9031    0.0027 H         1 <0>         0.0790
     32 H2         -0.5459    1.8868   -0.8726 H         1 <0>         0.0629
     33 H3         -0.5289    1.8773    0.9072 H         1 <0>         0.0654
     34 H4          0.5123   -0.3556   -0.8948 H         1 <0>         0.1053
     35 H5          1.7647   -0.1336    1.2338 H         1 <0>         0.0789
     36 H6          0.2319   -0.1594    2.1383 H         1 <0>         0.0654
     37 H7          0.7568   -1.6008    1.2356 H         1 <0>         0.0625
     38 H8         -2.1580    0.3239    1.8577 H         1 <0>         0.2131
     39 H9         -5.7566   -2.2223   -0.1084 H         1 <0>         0.4200
     40 H10        -6.3581   -2.9762   -2.7629 H         1 <0>         0.0800
     41 H11        -5.8176   -4.4228   -1.8777 H         1 <0>         0.0830
     42 H12        -7.1087   -5.2955   -0.0177 H         1 <0>         0.1413
     43 H13        -9.3315   -5.5032    1.0176 H         1 <0>         0.1392
     44 H14        -8.4073   -1.8352   -2.1454 H         1 <0>         0.1373
     45 H15       -12.8224   -2.2010   -0.0164 H         1 <0>         0.1340
     46 H16       -12.5177   -3.4005   -1.3133 H         1 <0>         0.0868
     47 H17        -2.1925   -4.6992   -5.3634 H         1 <0>         0.0926
     48 H18        -3.5022   -4.4725   -4.1795 H         1 <0>         0.0977
     49 H19        -4.2551   -3.6757   -6.3684 H         1 <0>         0.0529
     50 H20        -4.0524   -2.2820   -5.2800 H         1 <0>         0.0469
     51 H21        -3.0042   -1.9190   -7.3954 H         1 <0>         0.3765
     52 H22        -0.4751   -2.8921   -5.5210 H         1 <0>         0.0925
     53 H23        -0.1975   -1.9075   -4.0644 H         1 <0>         0.0960
     54 H24         1.4323   -3.7334   -4.1189 H         1 <0>         0.0520
     55 H25         0.2842   -4.0177   -2.7887 H         1 <0>         0.0462
     56 H26         0.5886   -5.9681   -4.1337 H         1 <0>         0.3764
@<TRIPOS>BOND
     1    1    2 1
     2    1   31 1
     3    1   32 1
     4    1   33 1
     5    2    3 1
     6    2    4 1
     7    2   34 1
     8    3   35 1
     9    3   36 1
    10    3   37 1
    11    4    8 1
    12    4    5 1
    13    5    6 2
    14    5   38 1
    15    6    7 1
    16    7   12 ar
    17    7    8 ar
    18    8    9 ar
    19    9   10 ar
    20   10   11 ar
    21   10   24 1
    22   11   12 ar
    23   12   13 1
    24   13   14 1
    25   13   39 1
    26   14   15 1
    27   14   40 1
    28   14   41 1
    29   15   20 ar
    30   15   16 ar
    31   16   17 ar
    32   16   42 1
    33   17   18 ar
    34   17   43 1
    35   18   23 1
    36   18   19 ar
    37   19   20 ar
    38   19   21 1
    39   20   44 1
    40   21   22 1
    41   22   23 1
    42   22   45 1
    43   22   46 1
    44   24   25 1
    45   24   28 1
    46   25   26 1
    47   25   47 1
    48   25   48 1
    49   26   27 1
    50   26   49 1
    51   26   50 1
    52   27   51 1
    53   28   29 1
    54   28   52 1
    55   28   53 1
    56   29   30 1
    57   29   54 1
    58   29   55 1
    59   30   56 1
@<TRIPOS>MOLECULE
CHEMBL489477
   43    46     0     0     0
SMALL
USER_CHARGES

@<TRIPOS>ATOM
      1 C1         -0.0167    1.3790    0.0096 C.ar      1 <0>        -0.1144
      2 C2          1.1686    2.0919    0.0021 C.ar      1 <0>        -0.1198
      3 C3          2.3774    1.4260   -0.0130 C.ar      1 <0>        -0.1017
      4 C4          2.4022    0.0327   -0.0207 C.ar      1 <0>        -0.0539
      5 C5          1.2051   -0.6804   -0.0131 C.ar      1 <0>        -0.0984
      6 C6          0.0021   -0.0041    0.0020 C.ar      1 <0>        -0.1187
      7 C7          3.6986   -0.6887   -0.0375 C.ar      1 <0>        -0.0758
      8 C8          4.6794   -0.3432   -0.9648 C.ar      1 <0>        -0.0765
      9 C9          5.8836   -1.0171   -0.9759 C.ar      1 <0>        -0.1100
     10 C10         6.1194   -2.0348   -0.0686 C.ar      1 <0>        -0.0421
     11 C11         5.1510   -2.3839    0.8543 C.ar      1 <0>        -0.1353
     12 C12         3.9425   -1.7121    0.8790 C.ar      1 <0>         0.1121
     13 F1          2.9986   -2.0493    1.7849 F         1 <0>        -0.1326
     14 C13         7.4369   -2.7661   -0.0869 C.3       1 <0>        -0.0976
     15 C14         8.4120   -2.0672    0.8251 C.2       1 <0>         0.5230
     16 O1          8.0707   -1.0731    1.4304 O.2       1 <0>        -0.4984
     17 N1          9.6634   -2.5468    0.9682 N.am      1 <0>        -0.6373
     18 C15        10.5703   -1.8969    1.8164 C.2       1 <0>         0.3027
     19 C16        10.3085   -0.7464    2.5776 C.2       1 <0>        -0.2593
     20 C17        11.4345   -0.4344    3.2586 C.2       1 <0>         0.1312
     21 N2         12.3756   -1.3492    2.9439 N.pl3     1 <0>        -0.4670
     22 H1         13.2832   -1.3736    3.2853 H         1 <0>         0.4393
     23 N3         11.8107   -2.2604    2.0423 N.2       1 <0>        -0.3180
     24 C18        11.6077    0.7287    4.2011 C.3       1 <0>        -0.0990
     25 C19        12.9855    1.3915    4.2595 C.3       1 <0>        -0.1700
     26 C20        12.5057    0.5206    5.4223 C.3       1 <0>        -0.1699
     27 H2         -0.9603    1.9042    0.0260 H         1 <0>         0.1239
     28 H3          1.1482    3.1717    0.0078 H         1 <0>         0.1257
     29 H4          3.3023    1.9836   -0.0192 H         1 <0>         0.1253
     30 H5          1.2186   -1.7603   -0.0194 H         1 <0>         0.1226
     31 H6         -0.9264   -0.5558    0.0083 H         1 <0>         0.1254
     32 H7          4.4974    0.4506   -1.6741 H         1 <0>         0.1358
     33 H8          6.6439   -0.7497   -1.6948 H         1 <0>         0.1318
     34 H9          5.3404   -3.1793    1.5599 H         1 <0>         0.1367
     35 H10         7.2888   -3.7902    0.2558 H         1 <0>         0.1139
     36 H11         7.8327   -2.7764   -1.1025 H         1 <0>         0.1157
     37 H12         9.9364   -3.3419    0.4841 H         1 <0>         0.4172
     38 H13         9.3738   -0.2066    2.6130 H         1 <0>         0.1729
     39 H14        10.7348    1.3701    4.3218 H         1 <0>         0.1343
     40 H15        13.7665    0.9864    3.6161 H         1 <0>         0.0948
     41 H16        13.0191    2.4693    4.4184 H         1 <0>         0.1081
     42 H17        12.2237    1.0255    6.3463 H         1 <0>         0.1081
     43 H18        12.9711   -0.4575    5.5440 H         1 <0>         0.0949
@<TRIPOS>BOND
     1    1    6 ar
     2    1    2 ar
     3    1   27 1
     4    2    3 ar
     5    2   28 1
     6    3    4 ar
     7    3   29 1
     8    4    5 ar
     9    4    7 1
    10    5    6 ar
    11    5   30 1
    12    6   31 1
    13    7   12 ar
    14    7    8 ar
    15    8    9 ar
    16    8   32 1
    17    9   10 ar
    18    9   33 1
    19   10   11 ar
    20   10   14 1
    21   11   12 ar
    22   11   34 1
    23   12   13 1
    24   14   15 1
    25   14   35 1
    26   14   36 1
    27   15   16 2
    28   15   17 am
    29   17   18 1
    30   17   37 1
    31   18   23 2
    32   18   19 1
    33   19   20 2
    34   19   38 1
    35   20   21 1
    36   20   24 1
    37   21   22 1
    38   21   23 1
    39   24   26 1
    40   24   25 1
    41   24   39 1
    42   25   26 1
    43   25   40 1
    44   25   41 1
    45   26   42 1
    46   26   43 1
@<TRIPOS>MOLECULE
CHEMBL489477
   43    46     0     0     0
SMALL
USER_CHARGES

@<TRIPOS>ATOM
      1 C1         -0.0167    1.3790    0.0096 C.ar      1 <0>        -0.1138
      2 C2          1.1686    2.0919    0.0021 C.ar      1 <0>        -0.1196
      3 C3          2.3774    1.4260   -0.0130 C.ar      1 <0>        -0.1012
      4 C4          2.4022    0.0327   -0.0207 C.ar      1 <0>        -0.0552
      5 C5          1.2051   -0.6804   -0.0131 C.ar      1 <0>        -0.0982
      6 C6          0.0021   -0.0041    0.0020 C.ar      1 <0>        -0.1186
      7 C7          3.6986   -0.6887   -0.0375 C.ar      1 <0>        -0.0737
      8 C8          4.6794   -0.3432   -0.9648 C.ar      1 <0>        -0.0763
      9 C9          5.8836   -1.0171   -0.9759 C.ar      1 <0>        -0.1097
     10 C10         6.1194   -2.0348   -0.0686 C.ar      1 <0>        -0.0452
     11 C11         5.1510   -2.3839    0.8543 C.ar      1 <0>        -0.1349
     12 C12         3.9425   -1.7121    0.8790 C.ar      1 <0>         0.1126
     13 F1          2.9986   -2.0493    1.7849 F         1 <0>        -0.1320
     14 C13         7.4369   -2.7661   -0.0869 C.3       1 <0>        -0.0954
     15 C14         8.4120   -2.0672    0.8251 C.2       1 <0>         0.5205
     16 O1          8.0707   -1.0731    1.4304 O.2       1 <0>        -0.4880
     17 N1          9.6634   -2.5468    0.9682 N.am      1 <0>        -0.6528
     18 C15        10.5659   -1.9000    1.8123 C.2       1 <0>         0.3056
     19 C16        10.3192   -0.7819    2.5480 C.2       1 <0>        -0.2690
     20 C17        11.4850   -0.4665    3.2513 C.2       1 <0>         0.1221
     21 N2         12.3979   -1.3555    2.9540 N.2       1 <0>        -0.2785
     22 H1         12.2963   -3.0400    1.6679 H         1 <0>         0.4367
     23 N3         11.8435   -2.2734    2.0529 N.pl3     1 <0>        -0.4907
     24 C18        11.6608    0.6984    4.1910 C.3       1 <0>        -0.0855
     25 C19        10.6303    1.8269    4.1176 C.3       1 <0>        -0.1632
     26 C20        12.0456    2.0472    3.5797 C.3       1 <0>        -0.1631
     27 H2         -0.9603    1.9042    0.0260 H         1 <0>         0.1243
     28 H3          1.1482    3.1717    0.0078 H         1 <0>         0.1261
     29 H4          3.3023    1.9836   -0.0192 H         1 <0>         0.1254
     30 H5          1.2186   -1.7603   -0.0194 H         1 <0>         0.1225
     31 H6         -0.9264   -0.5558    0.0083 H         1 <0>         0.1256
     32 H7          4.4974    0.4506   -1.6741 H         1 <0>         0.1363
     33 H8          6.6439   -0.7497   -1.6948 H         1 <0>         0.1316
     34 H9          5.3404   -3.1793    1.5599 H         1 <0>         0.1366
     35 H10         7.2888   -3.7902    0.2558 H         1 <0>         0.1139
     36 H11         7.8327   -2.7764   -1.1025 H         1 <0>         0.1156
     37 H12         9.9364   -3.3419    0.4841 H         1 <0>         0.4134
     38 H13         9.3883   -0.2354    2.5821 H         1 <0>         0.1739
     39 H14        12.0715    0.4543    5.1707 H         1 <0>         0.1217
     40 H15         9.8251    1.7268    3.3897 H         1 <0>         0.1014
     41 H16        10.3627    2.3255    5.0493 H         1 <0>         0.1023
     42 H17        12.7091    2.6907    4.1575 H         1 <0>         0.1014
     43 H18        12.1715    2.0920    2.4980 H         1 <0>         0.0950
@<TRIPOS>BOND
     1    1    6 ar
     2    1    2 ar
     3    1   27 1
     4    2    3 ar
     5    2   28 1
     6    3    4 ar
     7    3   29 1
     8    4    5 ar
     9    4    7 1
    10    5    6 ar
    11    5   30 1
    12    6   31 1
    13    7   12 ar
    14    7    8 ar
    15    8    9 ar
    16    8   32 1
    17    9   10 ar
    18    9   33 1
    19   10   11 ar
    20   10   14 1
    21   11   12 ar
    22   11   34 1
    23   12   13 1
    24   14   15 1
    25   14   35 1
    26   14   36 1
    27   15   16 2
    28   15   17 am
    29   17   37 1
    30   17   18 1
    31   18   19 2
    32   18   23 1
    33   19   20 1
    34   19   38 1
    35   20   21 2
    36   20   24 1
    37   21   23 1
    38   22   23 1
    39   24   26 1
    40   24   25 1
    41   24   39 1
    42   25   26 1
    43   25   40 1
    44   25   41 1
    45   26   42 1
    46   26   43 1
@<TRIPOS>MOLECULE
CHEMBL490481
   43    46     0     0     0
SMALL
USER_CHARGES

@<TRIPOS>ATOM
      1 C1         -0.0163    1.3513    0.0095 C.2       1 <0>        -0.1546
      2 C2          1.1833    2.0380    0.0017 C.2       1 <0>        -0.1582
      3 C3          2.3426    1.3358   -0.0131 C.2       1 <0>        -0.1312
      4 S1          1.7535   -0.3495   -0.0166 S.3       1 <0>         0.0333
      5 C4          0.0021   -0.0041    0.0020 C.2       1 <0>        -0.1760
      6 C5          3.7608    1.8454   -0.0244 C.3       1 <0>         0.0024
      7 C6          4.2473    2.0081    1.3926 C.ar      1 <0>        -0.0782
      8 C7          4.0606    3.2075    2.0541 C.ar      1 <0>        -0.1075
      9 C8          4.5069    3.3567    3.3539 C.ar      1 <0>        -0.1002
     10 C9          5.1395    2.3064    3.9923 C.ar      1 <0>        -0.0716
     11 C10         5.3254    1.1067    3.3312 C.ar      1 <0>        -0.0994
     12 C11         4.8753    0.9561    2.0329 C.ar      1 <0>        -0.1082
     13 C12         5.6269    2.4694    5.4090 C.3       1 <0>        -0.0961
     14 C13         4.5357    2.0631    6.3656 C.2       1 <0>         0.5220
     15 O1          3.4672    1.6790    5.9390 O.2       1 <0>        -0.4977
     16 N1          4.7470    2.1266    7.6952 N.am      1 <0>        -0.6388
     17 C14         3.7320    1.7487    8.5849 C.2       1 <0>         0.3034
     18 C15         2.4560    1.2824    8.2304 C.2       1 <0>        -0.2589
     19 C16         1.7762    1.0260    9.3711 C.2       1 <0>         0.1305
     20 N2          2.5866    1.3174   10.4103 N.pl3     1 <0>        -0.4675
     21 H1          2.3624    1.2294   11.3499 H         1 <0>         0.4390
     22 N3          3.8102    1.7636    9.8946 N.2       1 <0>        -0.3190
     23 C17         0.3643    0.5076    9.4651 C.3       1 <0>        -0.0986
     24 C18        -0.4878    0.9883   10.6415 C.3       1 <0>        -0.1702
     25 C19         0.0378   -0.4483   10.6143 C.3       1 <0>        -0.1698
     26 H2         -0.9542    1.8866    0.0258 H         1 <0>         0.1326
     27 H3          1.1967    3.1179    0.0070 H         1 <0>         0.1312
     28 H4         -0.8275   -0.6955    0.0065 H         1 <0>         0.1844
     29 H5          4.3986    1.1333   -0.5480 H         1 <0>         0.0895
     30 H6          3.7967    2.8084   -0.5337 H         1 <0>         0.0968
     31 H7          3.5664    4.0280    1.5553 H         1 <0>         0.1225
     32 H8          4.3617    4.2940    3.8704 H         1 <0>         0.1214
     33 H9          5.8199    0.2863    3.8299 H         1 <0>         0.1218
     34 H10         5.0171    0.0176    1.5176 H         1 <0>         0.1223
     35 H11         6.5019    1.8390    5.5670 H         1 <0>         0.1101
     36 H12         5.8938    3.5117    5.5837 H         1 <0>         0.1099
     37 H13         5.6014    2.4338    8.0364 H         1 <0>         0.4165
     38 H14         2.0834    1.1516    7.2252 H         1 <0>         0.1726
     39 H15        -0.1397    0.3409    8.5131 H         1 <0>         0.1341
     40 H16        -0.0272    1.6795   11.3473 H         1 <0>         0.0948
     41 H17        -1.5527    1.1380   10.4635 H         1 <0>         0.1080
     42 H18        -0.6812   -1.2437   10.4184 H         1 <0>         0.1080
     43 H19         0.8443   -0.7023   11.3022 H         1 <0>         0.0949
@<TRIPOS>BOND
     1    1    5 2
     2    1    2 1
     3    1   26 1
     4    2    3 2
     5    2   27 1
     6    3    4 1
     7    3    6 1
     8    4    5 1
     9    5   28 1
    10    6    7 1
    11    6   29 1
    12    6   30 1
    13    7   12 ar
    14    7    8 ar
    15    8    9 ar
    16    8   31 1
    17    9   10 ar
    18    9   32 1
    19   10   11 ar
    20   10   13 1
    21   11   12 ar
    22   11   33 1
    23   12   34 1
    24   13   14 1
    25   13   35 1
    26   13   36 1
    27   14   15 2
    28   14   16 am
    29   16   17 1
    30   16   37 1
    31   17   22 2
    32   17   18 1
    33   18   19 2
    34   18   38 1
    35   19   20 1
    36   19   23 1
    37   20   21 1
    38   20   22 1
    39   23   25 1
    40   23   24 1
    41   23   39 1
    42   24   25 1
    43   24   40 1
    44   24   41 1
    45   25   42 1
    46   25   43 1
@<TRIPOS>MOLECULE
CHEMBL490481
   43    46     0     0     0
SMALL
USER_CHARGES

@<TRIPOS>ATOM
      1 C1         -0.0163    1.3513    0.0095 C.2       1 <0>        -0.1550
      2 C2          1.1833    2.0380    0.0017 C.2       1 <0>        -0.1572
      3 C3          2.3426    1.3358   -0.0131 C.2       1 <0>        -0.1328
      4 S1          1.7535   -0.3495   -0.0166 S.3       1 <0>         0.0335
      5 C4          0.0021   -0.0041    0.0020 C.2       1 <0>        -0.1747
      6 C5          3.7608    1.8454   -0.0244 C.3       1 <0>         0.0022
      7 C6          4.2473    2.0081    1.3926 C.ar      1 <0>        -0.0763
      8 C7          4.0606    3.2075    2.0541 C.ar      1 <0>        -0.1072
      9 C8          4.5069    3.3567    3.3539 C.ar      1 <0>        -0.0999
     10 C9          5.1395    2.3064    3.9923 C.ar      1 <0>        -0.0747
     11 C10         5.3254    1.1067    3.3312 C.ar      1 <0>        -0.0989
     12 C11         4.8753    0.9561    2.0329 C.ar      1 <0>        -0.1079
     13 C12         5.6269    2.4694    5.4090 C.3       1 <0>        -0.0940
     14 C13         4.5357    2.0631    6.3656 C.2       1 <0>         0.5194
     15 O1          3.4672    1.6790    5.9390 O.2       1 <0>        -0.4872
     16 N1          4.7470    2.1266    7.6952 N.am      1 <0>        -0.6541
     17 C14         3.7370    1.7506    8.5805 C.2       1 <0>         0.3064
     18 C15         2.4968    1.3031    8.2425 C.2       1 <0>        -0.2695
     19 C16         1.8008    1.0373    9.4250 C.2       1 <0>         0.1219
     20 N2          2.5860    1.3121   10.4351 N.2       1 <0>        -0.2795
     21 H1          4.5831    2.0282   10.4571 H         1 <0>         0.4365
     22 N3          3.8141    1.7588    9.9309 N.pl3     1 <0>        -0.4912
     23 C17         0.3876    0.5227    9.5205 C.3       1 <0>        -0.0851
     24 C18        -0.4876    0.6255    8.2697 C.3       1 <0>        -0.1632
     25 C19        -0.7440    1.5507    9.4610 C.3       1 <0>        -0.1632
     26 H2         -0.9542    1.8866    0.0258 H         1 <0>         0.1330
     27 H3          1.1967    3.1179    0.0070 H         1 <0>         0.1310
     28 H4         -0.8275   -0.6955    0.0065 H         1 <0>         0.1848
     29 H5          4.3986    1.1333   -0.5480 H         1 <0>         0.0898
     30 H6          3.7967    2.8084   -0.5337 H         1 <0>         0.0970
     31 H7          3.5664    4.0280    1.5553 H         1 <0>         0.1231
     32 H8          4.3617    4.2940    3.8704 H         1 <0>         0.1212
     33 H9          5.8199    0.2863    3.8299 H         1 <0>         0.1216
     34 H10         5.0171    0.0176    1.5176 H         1 <0>         0.1229
     35 H11         6.5019    1.8390    5.5670 H         1 <0>         0.1101
     36 H12         5.8938    3.5117    5.5837 H         1 <0>         0.1099
     37 H13         5.6014    2.4338    8.0364 H         1 <0>         0.4126
     38 H14         2.1178    1.1763    7.2392 H         1 <0>         0.1736
     39 H15         0.2458   -0.3452   10.1645 H         1 <0>         0.1216
     40 H16        -0.0412    1.0653    7.3779 H         1 <0>         0.1013
     41 H17        -1.2053   -0.1750    8.0906 H         1 <0>         0.1021
     42 H18        -1.6305    1.3589   10.0656 H         1 <0>         0.1014
     43 H19        -0.4664    2.5992    9.3528 H         1 <0>         0.0948
@<TRIPOS>BOND
     1    1    5 2
     2    1    2 1
     3    1   26 1
     4    2    3 2
     5    2   27 1
     6    3    4 1
     7    3    6 1
     8    4    5 1
     9    5   28 1
    10    6    7 1
    11    6   29 1
    12    6   30 1
    13    7   12 ar
    14    7    8 ar
    15    8    9 ar
    16    8   31 1
    17    9   10 ar
    18    9   32 1
    19   10   11 ar
    20   10   13 1
    21   11   12 ar
    22   11   33 1
    23   12   34 1
    24   13   14 1
    25   13   35 1
    26   13   36 1
    27   14   15 2
    28   14   16 am
    29   16   37 1
    30   16   17 1
    31   17   18 2
    32   17   22 1
    33   18   19 1
    34   18   38 1
    35   19   20 2
    36   19   23 1
    37   20   22 1
    38   21   22 1
    39   23   25 1
    40   23   24 1
    41   23   39 1
    42   24   25 1
    43   24   40 1
    44   24   41 1
    45   25   42 1
    46   25   43 1
@<TRIPOS>MOLECULE
CHEMBL191046
   54    58     0     0     0
SMALL
USER_CHARGES

@<TRIPOS>ATOM
      1 C1          1.0713   -0.3333   -1.1133 C.ar      1 <0>        -0.0540
      2 C2          2.1594    0.5054   -1.2512 C.ar      1 <0>        -0.1803
      3 C3          2.1148    1.7919   -0.7301 C.ar      1 <0>         0.2109
      4 C4          0.9759    2.2348   -0.0703 C.ar      1 <0>        -0.1795
      5 C5         -0.1121    1.3960    0.0676 C.ar      1 <0>        -0.0890
      6 C6         -0.0676    0.1095   -0.4535 C.ar      1 <0>         0.0958
      7 N1         -1.1716   -0.7412   -0.3140 N.pl3     1 <0>        -0.6234
      8 C7         -0.9802   -2.0980   -0.1397 C.ar      1 <0>         0.6059
      9 N2          0.2585   -2.5546    0.0119 N.ar      1 <0>        -0.5703
     10 C8          0.4968   -3.8424    0.1823 C.ar      1 <0>         0.2580
     11 C9         -0.5900   -4.7244    0.2003 C.ar      1 <0>        -0.2910
     12 C10        -0.4165   -6.1621    0.3838 C.2       1 <0>         0.0102
     13 C11        -1.5242   -6.9490    0.3893 C.2       1 <0>        -0.2328
     14 C12        -2.8012   -6.3765    0.2210 C.2       1 <0>         0.5367
     15 O1         -3.7813   -7.1009    0.2296 O.2       1 <0>        -0.5043
     16 N3         -2.9678   -5.0528    0.0515 N.am      1 <0>        -0.4996
     17 C13        -1.8920   -4.2031    0.0361 C.ar      1 <0>         0.4635
     18 N4         -2.0389   -2.8940   -0.1245 N.ar      1 <0>        -0.5992
     19 C14        -4.3182   -4.5111   -0.1194 C.3       1 <0>         0.1246
     20 C15        -4.9239   -5.0111   -1.4472 C.3       1 <0>        -0.1273
     21 C16        -5.7638   -6.2471   -1.0399 C.3       1 <0>        -0.1338
     22 C17        -6.3698   -5.8159    0.3188 C.3       1 <0>        -0.1096
     23 C18        -5.2375   -5.0228    1.0034 C.3       1 <0>        -0.1235
     24 N5          3.2177    2.6419   -0.8695 N.pl3     1 <0>        -0.6336
     25 C19         4.4755    2.1597   -1.4618 C.3       1 <0>         0.0864
     26 C20         4.9010    3.1420   -2.5592 C.3       1 <0>         0.0451
     27 O2          4.9185    4.4674   -2.0235 O.3       1 <0>        -0.3793
     28 C21         3.6436    4.9348   -1.5762 C.3       1 <0>         0.0454
     29 C22         3.1520    4.0458   -0.4337 C.3       1 <0>         0.0868
     30 H1          1.1043   -1.3323   -1.5224 H         1 <0>         0.1327
     31 H2          3.0452    0.1608   -1.7640 H         1 <0>         0.1258
     32 H3          0.9413    3.2351    0.3352 H         1 <0>         0.1266
     33 H4         -0.9979    1.7403    0.5807 H         1 <0>         0.1251
     34 H5         -2.0704   -0.3776   -0.3398 H         1 <0>         0.4234
     35 H6          1.5062   -4.2064    0.3045 H         1 <0>         0.1843
     36 H7          0.5671   -6.5894    0.5115 H         1 <0>         0.1504
     37 H8         -1.4260   -8.0163    0.5227 H         1 <0>         0.1578
     38 H9         -4.2872   -3.4216   -0.1092 H         1 <0>         0.1140
     39 H10        -5.5617   -4.2449   -1.8880 H         1 <0>         0.0775
     40 H11        -4.1349   -5.2982   -2.1423 H         1 <0>         0.0635
     41 H12        -6.5500   -6.4377   -1.7704 H         1 <0>         0.0562
     42 H13        -5.1273   -7.1236   -0.9183 H         1 <0>         0.1063
     43 H14        -7.2411   -5.1798    0.1632 H         1 <0>         0.0599
     44 H15        -6.6359   -6.6905    0.9125 H         1 <0>         0.0671
     45 H16        -4.6789   -5.6742    1.6755 H         1 <0>         0.0734
     46 H17        -5.6533   -4.1816    1.5580 H         1 <0>         0.0675
     47 H18         5.2476    2.1102   -0.6940 H         1 <0>         0.0713
     48 H19         4.3225    1.1707   -1.8937 H         1 <0>         0.0934
     49 H20         5.8971    2.8803   -2.9158 H         1 <0>         0.1052
     50 H21         4.1927    3.0929   -3.3863 H         1 <0>         0.0559
     51 H22         3.7352    5.9628   -1.2258 H         1 <0>         0.1055
     52 H23         2.9308    4.8922   -2.3998 H         1 <0>         0.0554
     53 H24         2.1229    4.3052   -0.1851 H         1 <0>         0.0924
     54 H25         3.7885    4.1894    0.4394 H         1 <0>         0.0706
@<TRIPOS>BOND
     1    1    6 ar
     2    1    2 ar
     3    1   30 1
     4    2    3 ar
     5    2   31 1
     6    3    4 ar
     7    3   24 1
     8    4    5 ar
     9    4   32 1
    10    5    6 ar
    11    5   33 1
    12    6    7 1
    13    7    8 1
    14    7   34 1
    15    8   18 ar
    16    8    9 ar
    17    9   10 ar
    18   10   11 ar
    19   10   35 1
    20   11   17 ar
    21   11   12 1
    22   12   13 2
    23   12   36 1
    24   13   14 1
    25   13   37 1
    26   14   15 2
    27   14   16 am
    28   16   17 1
    29   16   19 1
    30   17   18 ar
    31   19   23 1
    32   19   20 1
    33   19   38 1
    34   20   21 1
    35   20   39 1
    36   20   40 1
    37   21   22 1
    38   21   41 1
    39   21   42 1
    40   22   23 1
    41   22   43 1
    42   22   44 1
    43   23   45 1
    44   23   46 1
    45   24   29 1
    46   24   25 1
    47   25   26 1
    48   25   47 1
    49   25   48 1
    50   26   27 1
    51   26   49 1
    52   26   50 1
    53   27   28 1
    54   28   29 1
    55   28   51 1
    56   28   52 1
    57   29   53 1
    58   29   54 1
@<TRIPOS>MOLECULE
CHEMBL319103
   51    54     0     0     0
SMALL
USER_CHARGES

@<TRIPOS>ATOM
      1 C1          6.3452   -4.7620   -0.2573 C.ar      1 <0>        -0.0594
      2 C2          4.9709   -4.6909   -0.1261 C.ar      1 <0>        -0.1386
      3 C3          4.3608   -3.4720    0.1041 C.ar      1 <0>        -0.0158
      4 C4          5.1249   -2.3244    0.2036 C.ar      1 <0>        -0.6776
      5 C5          6.4993   -2.3957    0.0733 C.ar      1 <0>        -0.0204
      6 C6          7.1093   -3.6143   -0.1583 C.ar      1 <0>        -0.1397
      7 S1          4.3471   -0.7706    0.4959 S.o2      1 <0>         2.6882
      8 O1          5.2596    0.2284    0.0617 O.2       1 <0>        -0.9493
      9 O2          3.0274   -0.8734   -0.0210 O.2       1 <0>        -0.9440
     10 N1          4.2008   -0.5972    2.1363 N.pl3     1 <0>        -1.0638
     11 C7          3.3958   -1.4780    2.8627 C.ar      1 <0>         0.1281
     12 C8          2.0115   -1.3625    2.8056 C.ar      1 <0>        -0.0911
     13 C9          1.2113   -2.2313    3.5229 C.ar      1 <0>        -0.1038
     14 C10         1.7812   -3.2195    4.3003 C.ar      1 <0>        -0.0772
     15 C11         3.1694   -3.3435    4.3641 C.ar      1 <0>        -0.0314
     16 C12         3.9770   -2.4710    3.6362 C.ar      1 <0>        -0.1002
     17 C13         3.7825   -4.4018    5.1973 C.2       1 <0>         0.1571
     18 C14         3.1156   -5.3264    5.9489 C.2       1 <0>        -0.2716
     19 C15         4.0701   -6.1366    6.5771 C.2       1 <0>         0.3216
     20 N2          5.2644   -5.7222    6.2225 N.2       1 <0>        -0.3115
     21 N3          5.1165   -4.6362    5.3504 N.pl3     1 <0>        -0.4666
     22 H1          5.8357   -4.1382    4.9314 H         1 <0>         0.4419
     23 N4          3.7969   -7.2065    7.4380 N.pl3     1 <0>        -0.6463
     24 C16         4.8428   -7.8587    8.0955 C.ar      1 <0>         0.2386
     25 C17         5.9923   -7.1587    8.4404 C.ar      1 <0>        -0.1654
     26 C18         7.0242   -7.8064    9.0908 C.ar      1 <0>         0.0117
     27 C19         6.9142   -9.1501    9.3987 C.ar      1 <0>        -0.7073
     28 C20         5.7714   -9.8499    9.0569 C.ar      1 <0>         0.0122
     29 C21         4.7335   -9.2072    8.4111 C.ar      1 <0>        -0.1838
     30 S2          8.2334   -9.9726   10.2281 S.o2      1 <0>         2.7033
     31 O3          8.1111  -11.3535    9.9159 O.2       1 <0>        -0.9663
     32 O4          9.4130   -9.2304    9.9507 O.2       1 <0>        -0.9660
     33 N5          7.9549   -9.8285   11.8541 N.pl3     1 <0>        -1.2511
     34 H2          6.8223   -5.7149   -0.4327 H         1 <0>         0.1325
     35 H3          4.3739   -5.5875   -0.2038 H         1 <0>         0.1337
     36 H4          3.2870   -3.4163    0.2059 H         1 <0>         0.1386
     37 H5          7.0963   -1.4990    0.1506 H         1 <0>         0.1416
     38 H6          8.1830   -3.6699   -0.2605 H         1 <0>         0.1350
     39 H7          4.6740    0.1160    2.5927 H         1 <0>         0.4281
     40 H8          1.5601   -0.5913    2.1991 H         1 <0>         0.1420
     41 H9          0.1365   -2.1366    3.4755 H         1 <0>         0.1407
     42 H10         1.1524   -3.8965    4.8595 H         1 <0>         0.1374
     43 H11         5.0521   -2.5652    3.6785 H         1 <0>         0.1265
     44 H12         2.0434   -5.4165    6.0428 H         1 <0>         0.1560
     45 H13         2.8814   -7.4949    7.5778 H         1 <0>         0.4261
     46 H14         6.0790   -6.1094    8.1999 H         1 <0>         0.1445
     47 H15         7.9182   -7.2630    9.3589 H         1 <0>         0.1438
     48 H16         5.6888  -10.8992    9.2989 H         1 <0>         0.1458
     49 H17         3.8395   -9.7532    8.1484 H         1 <0>         0.1367
     50 H18         7.1713   -9.3532   12.1718 H         1 <0>         0.4164
     51 H19         8.5755  -10.2194   12.4890 H         1 <0>         0.4204
@<TRIPOS>BOND
     1    1    6 ar
     2    1    2 ar
     3    1   34 1
     4    2    3 ar
     5    2   35 1
     6    3    4 ar
     7    3   36 1
     8    4    5 ar
     9    4    7 1
    10    5    6 ar
    11    5   37 1
    12    6   38 1
    13    7    8 2
    14    7    9 2
    15    7   10 1
    16   10   11 1
    17   10   39 1
    18   11   16 ar
    19   11   12 ar
    20   12   13 ar
    21   12   40 1
    22   13   14 ar
    23   13   41 1
    24   14   15 ar
    25   14   42 1
    26   15   16 ar
    27   15   17 1
    28   16   43 1
    29   17   21 1
    30   17   18 2
    31   18   19 1
    32   18   44 1
    33   19   20 2
    34   19   23 1
    35   20   21 1
    36   21   22 1
    37   23   24 1
    38   23   45 1
    39   24   29 ar
    40   24   25 ar
    41   25   26 ar
    42   25   46 1
    43   26   27 ar
    44   26   47 1
    45   27   28 ar
    46   27   30 1
    47   28   29 ar
    48   28   48 1
    49   29   49 1
    50   30   31 2
    51   30   32 2
    52   30   33 1
    53   33   50 1
    54   33   51 1
@<TRIPOS>MOLECULE
CHEMBL319103
   51    54     0     0     0
SMALL
USER_CHARGES

@<TRIPOS>ATOM
      1 C1          3.8967   -4.7235   -2.0065 C.ar      1 <0>        -0.0599
      2 C2          2.7505   -4.3382   -1.3367 C.ar      1 <0>        -0.1394
      3 C3          2.7052   -3.1174   -0.6899 C.ar      1 <0>        -0.0151
      4 C4          3.8064   -2.2820   -0.7124 C.ar      1 <0>        -0.6766
      5 C5          4.9529   -2.6677   -1.3814 C.ar      1 <0>        -0.0191
      6 C6          4.9977   -3.8879   -2.0295 C.ar      1 <0>        -0.1402
      7 S1          3.7483   -0.7254    0.1111 S.o2      1 <0>         2.6908
      8 O1          4.7675    0.0783   -0.4673 O.2       1 <0>        -0.9490
      9 O2          2.3843   -0.3277    0.1321 O.2       1 <0>        -0.9457
     10 N1          4.1891   -0.9878    1.6857 N.pl3     1 <0>        -1.0552
     11 C7          3.3917   -1.7847    2.5107 C.ar      1 <0>         0.1404
     12 C8          2.0121   -1.6152    2.5184 C.ar      1 <0>        -0.1433
     13 C9          1.2205   -2.4013    3.3335 C.ar      1 <0>        -0.0961
     14 C10         1.7953   -3.3596    4.1448 C.ar      1 <0>        -0.0978
     15 C11         3.1774   -3.5369    4.1432 C.ar      1 <0>        -0.0016
     16 C12         3.9758   -2.7493    3.3181 C.ar      1 <0>        -0.0991
     17 C13         3.7966   -4.5663    5.0151 C.2       1 <0>         0.1427
     18 C14         3.1052   -5.4949    5.8150 C.2       1 <0>        -0.2959
     19 C15         4.0288   -6.2587    6.4570 C.2       1 <0>         0.3434
     20 N2          5.2595   -5.8267    6.0752 N.pl3     1 <0>        -0.4910
     21 N3          5.0872   -4.7723    5.1696 N.2       1 <0>        -0.2758
     22 H1          6.1085   -6.1880    6.3745 H         1 <0>         0.4402
     23 N4          3.7618   -7.2967    7.3462 N.pl3     1 <0>        -0.6582
     24 C16         4.8091   -7.9128    8.0356 C.ar      1 <0>         0.2272
     25 C17         5.8990   -7.1633    8.4607 C.ar      1 <0>        -0.2035
     26 C18         6.9325   -7.7756    9.1418 C.ar      1 <0>         0.0224
     27 C19         6.8837   -9.1332    9.4008 C.ar      1 <0>        -0.7044
     28 C20         5.8004   -9.8823    8.9790 C.ar      1 <0>         0.0205
     29 C21         4.7607   -9.2754    8.3024 C.ar      1 <0>        -0.1748
     30 S2          8.2049   -9.9104   10.2696 S.o2      1 <0>         2.7040
     31 O3          8.1764  -11.2842    9.9077 O.2       1 <0>        -0.9622
     32 O4          9.3529   -9.0954   10.0765 O.2       1 <0>        -0.9624
     33 N5          7.8393   -9.8382   11.8831 N.pl3     1 <0>        -1.2500
     34 H2          3.9336   -5.6792   -2.5081 H         1 <0>         0.1322
     35 H3          1.8902   -4.9909   -1.3191 H         1 <0>         0.1343
     36 H4          1.8095   -2.8161   -0.1672 H         1 <0>         0.1399
     37 H5          5.8131   -2.0149   -1.3993 H         1 <0>         0.1414
     38 H6          5.8933   -4.1890   -2.5525 H         1 <0>         0.1345
     39 H7          5.0009   -0.5881    2.0352 H         1 <0>         0.4289
     40 H8          1.5578   -0.8668    1.8860 H         1 <0>         0.1605
     41 H9          0.1491   -2.2657    3.3365 H         1 <0>         0.1371
     42 H10         1.1734   -3.9718    4.7811 H         1 <0>         0.1323
     43 H11         5.0471   -2.8858    3.3104 H         1 <0>         0.1363
     44 H12         2.0325   -5.5846    5.9034 H         1 <0>         0.1556
     45 H13         2.8485   -7.5918    7.4870 H         1 <0>         0.4325
     46 H14         5.9379   -6.1031    8.2585 H         1 <0>         0.1367
     47 H15         7.7802   -7.1936    9.4723 H         1 <0>         0.1503
     48 H16         5.7654  -10.9423    9.1829 H         1 <0>         0.1509
     49 H17         3.9127   -9.8601    7.9775 H         1 <0>         0.1423
     50 H18         7.0154   -9.4179   12.1754 H         1 <0>         0.4168
     51 H19         8.4491  -10.2163   12.5359 H         1 <0>         0.4221
@<TRIPOS>BOND
     1    1    6 ar
     2    1    2 ar
     3    1   34 1
     4    2    3 ar
     5    2   35 1
     6    3    4 ar
     7    3   36 1
     8    4    5 ar
     9    4    7 1
    10    5    6 ar
    11    5   37 1
    12    6   38 1
    13    7    8 2
    14    7    9 2
    15    7   10 1
    16   10   11 1
    17   10   39 1
    18   11   16 ar
    19   11   12 ar
    20   12   13 ar
    21   12   40 1
    22   13   14 ar
    23   13   41 1
    24   14   15 ar
    25   14   42 1
    26   15   16 ar
    27   15   17 1
    28   16   43 1
    29   17   18 1
    30   17   21 2
    31   18   44 1
    32   18   19 2
    33   19   23 1
    34   19   20 1
    35   20   22 1
    36   20   21 1
    37   23   24 1
    38   23   45 1
    39   24   29 ar
    40   24   25 ar
    41   25   26 ar
    42   25   46 1
    43   26   27 ar
    44   26   47 1
    45   27   28 ar
    46   27   30 1
    47   28   29 ar
    48   28   48 1
    49   29   49 1
    50   30   31 2
    51   30   32 2
    52   30   33 1
    53   33   50 1
    54   33   51 1
@<TRIPOS>MOLECULE
CHEMBL75680
   37    39     0     0     0
SMALL
USER_CHARGES

@<TRIPOS>ATOM
      1 C1          1.8081   -4.6616   -0.1863 C.3       1 <0>        -0.1532
      2 C2          0.9947   -3.3694   -0.0888 C.3       1 <0>        -0.1238
      3 C3         -0.4979   -3.7054   -0.0851 C.3       1 <0>        -0.1108
      4 C4         -1.3114   -2.4133    0.0123 C.3       1 <0>        -0.0498
      5 C5         -2.7792   -2.7336   -0.1052 C.2       1 <0>        -0.1230
      6 C6         -3.6798   -2.9315    0.9703 C.ar      1 <0>         0.0614
      7 C7         -4.9420   -3.2065    0.4005 C.ar      1 <0>         0.2369
      8 N1         -4.7889   -3.1715   -0.9660 N.pl3     1 <0>        -0.5623
      9 H1         -5.4920   -3.3243   -1.6165 H         1 <0>         0.4248
     10 C8         -3.4763   -2.8785   -1.2598 C.2       1 <0>         0.1482
     11 C9         -2.9137   -2.7464   -2.6203 C.ar      1 <0>        -0.0487
     12 C10        -2.1113   -1.6503   -2.9425 C.ar      1 <0>        -0.0701
     13 C11        -1.5883   -1.5309   -4.2122 C.ar      1 <0>        -0.1417
     14 C12        -1.8588   -2.4990   -5.1705 C.ar      1 <0>         0.1212
     15 C13        -2.6570   -3.5907   -4.8541 C.ar      1 <0>        -0.1426
     16 C14        -3.1787   -3.7204   -3.5849 C.ar      1 <0>        -0.0837
     17 O1         -1.3418   -2.3776   -6.4209 O.3       1 <0>        -0.4984
     18 N2         -5.9810   -3.4342    1.1913 N.ar      1 <0>        -0.4505
     19 C15        -5.8299   -3.4027    2.5029 C.ar      1 <0>         0.0851
     20 C16        -4.5912   -3.1329    3.0645 C.ar      1 <0>         0.0409
     21 N3         -3.5445   -2.9034    2.2954 N.ar      1 <0>        -0.4011
     22 H2          2.8715   -4.4222   -0.1889 H         1 <0>         0.0536
     23 H3          1.5814   -5.2990    0.6683 H         1 <0>         0.0533
     24 H4          1.5511   -5.1841   -1.1077 H         1 <0>         0.0520
     25 H5          1.2518   -2.8468    0.8325 H         1 <0>         0.0628
     26 H6          1.2215   -2.7320   -0.9435 H         1 <0>         0.0607
     27 H7         -0.7550   -4.2280   -1.0065 H         1 <0>         0.0595
     28 H8         -0.7247   -4.3429    0.7695 H         1 <0>         0.0621
     29 H9         -1.1197   -1.9348    0.9728 H         1 <0>         0.0793
     30 H10        -1.0209   -1.7394   -0.7936 H         1 <0>         0.0738
     31 H11        -1.9010   -0.8967   -2.1981 H         1 <0>         0.1370
     32 H12        -0.9674   -0.6833   -4.4622 H         1 <0>         0.1370
     33 H13        -2.8654   -4.3412   -5.6021 H         1 <0>         0.1349
     34 H14        -3.7953   -4.5721   -3.3382 H         1 <0>         0.1284
     35 H15        -0.4754   -2.7929   -6.5303 H         1 <0>         0.3956
     36 H16        -6.6791   -3.5885    3.1439 H         1 <0>         0.1767
     37 H17        -4.4828   -3.1100    4.1388 H         1 <0>         0.1746
@<TRIPOS>BOND
     1    1    2 1
     2    1   22 1
     3    1   23 1
     4    1   24 1
     5    2    3 1
     6    2   25 1
     7    2   26 1
     8    3    4 1
     9    3   27 1
    10    3   28 1
    11    4    5 1
    12    4   29 1
    13    4   30 1
    14    5   10 2
    15    5    6 1
    16    6   21 ar
    17    6    7 ar
    18    7    8 1
    19    7   18 ar
    20    8    9 1
    21    8   10 1
    22   10   11 1
    23   11   16 ar
    24   11   12 ar
    25   12   13 ar
    26   12   31 1
    27   13   14 ar
    28   13   32 1
    29   14   15 ar
    30   14   17 1
    31   15   16 ar
    32   15   33 1
    33   16   34 1
    34   17   35 1
    35   18   19 ar
    36   19   20 ar
    37   19   36 1
    38   20   21 ar
    39   20   37 1
@<TRIPOS>MOLECULE
CHEMBL141247
   39    42     0     0     0
SMALL
USER_CHARGES

@<TRIPOS>ATOM
      1 C1          2.6245    1.0381    1.7212 C.ar      1 <0>        -0.0461
      2 C2          1.4717    1.5197    2.3269 C.ar      1 <0>        -0.2031
      3 C3          0.3270    0.7481    2.3111 C.ar      1 <0>         0.1340
      4 N1          0.3174   -0.4364    1.7298 N.ar      1 <0>        -0.4748
      5 C4          1.3956   -0.9299    1.1420 C.ar      1 <0>         0.3724
      6 C5          2.5832   -0.2070    1.1195 C.ar      1 <0>        -0.2065
      7 N2          1.3402   -2.1858    0.5401 N.am      1 <0>        -0.6659
      8 C6          0.2248   -2.9350    0.6455 C.2       1 <0>         0.6954
      9 O1         -0.7644   -2.4798    1.1862 O.2       1 <0>        -0.5031
     10 N3          0.2060   -4.1889    0.1516 N.am      1 <0>        -0.6798
     11 C7         -0.9847   -4.9245    0.1546 C.ar      1 <0>         0.1913
     12 C8         -2.2098   -4.2659    0.1626 C.ar      1 <0>        -0.0992
     13 C9         -3.3869   -4.9903    0.1655 C.ar      1 <0>        -0.0999
     14 C10        -3.3566   -6.3702    0.1701 C.ar      1 <0>        -0.0641
     15 C11        -2.1342   -7.0420    0.1733 C.ar      1 <0>        -0.1285
     16 C12        -0.9445   -6.3058    0.1439 C.ar      1 <0>        -0.1177
     17 C13         0.1673   -7.3118    0.0838 C.3       1 <0>         0.1322
     18 H1          0.6639   -7.2915   -0.8863 H         1 <0>         0.1060
     19 C14         1.1788   -7.1448    1.2281 C.3       1 <0>        -0.1255
     20 C15         1.5301   -8.5925    1.6463 C.3       1 <0>        -0.1382
     21 C16         0.6614   -9.4911    0.7320 C.3       1 <0>         0.1414
     22 N4         -0.4698   -8.6260    0.3341 N.am      1 <0>        -0.6241
     23 C17        -1.7879   -8.4793    0.1969 C.2       1 <0>         0.5942
     24 O2         -2.5842   -9.3916    0.0920 O.2       1 <0>        -0.5179
     25 H2          3.5317    1.6242    1.7159 H         1 <0>         0.1396
     26 H3          1.4706    2.4878    2.8057 H         1 <0>         0.1374
     27 H4         -0.5721    1.1185    2.7810 H         1 <0>         0.1606
     28 H5          3.4614   -0.6120    0.6388 H         1 <0>         0.1363
     29 H6          2.1044   -2.5207    0.0453 H         1 <0>         0.4155
     30 H7          1.0178   -4.5815   -0.2060 H         1 <0>         0.4070
     31 H8         -2.2413   -3.1864    0.1670 H         1 <0>         0.1591
     32 H9         -4.3355   -4.4739    0.1644 H         1 <0>         0.1399
     33 H10        -4.2801   -6.9302    0.1717 H         1 <0>         0.1353
     34 H11         2.0691   -6.6235    0.8763 H         1 <0>         0.0815
     35 H12         0.7260   -6.6071    2.0612 H         1 <0>         0.0790
     36 H13         2.5886   -8.7899    1.4771 H         1 <0>         0.0881
     37 H14         1.2751   -8.7574    2.6931 H         1 <0>         0.0782
     38 H15         1.2248   -9.7975   -0.1494 H         1 <0>         0.0829
     39 H16         0.3046  -10.3628    1.2806 H         1 <0>         0.0872
@<TRIPOS>BOND
     1    1    6 ar
     2    1    2 ar
     3    1   25 1
     4    2    3 ar
     5    2   26 1
     6    3    4 ar
     7    3   27 1
     8    4    5 ar
     9    5    6 ar
    10    5    7 1
    11    6   28 1
    12    7    8 am
    13    7   29 1
    14    8    9 2
    15    8   10 am
    16   10   11 1
    17   10   30 1
    18   11   16 ar
    19   11   12 ar
    20   12   13 ar
    21   12   31 1
    22   13   14 ar
    23   13   32 1
    24   14   15 ar
    25   14   33 1
    26   15   23 1
    27   15   16 ar
    28   16   17 1
    29   17   18 1
    30   17   22 1
    31   17   19 1
    32   19   20 1
    33   19   34 1
    34   19   35 1
    35   20   21 1
    36   20   36 1
    37   20   37 1
    38   21   22 1
    39   21   38 1
    40   21   39 1
    41   22   23 am
    42   23   24 2
@<TRIPOS>MOLECULE
CHEMBL565459
   54    57     0     0     0
SMALL
USER_CHARGES

@<TRIPOS>ATOM
      1 C1         -0.3527    1.4878    0.0468 C.3       1 <0>        -0.1009
      2 C2         -0.2414   -0.0149    0.0286 C.ar      1 <0>        -0.2407
      3 C3         -0.4511   -0.7258   -1.1386 C.ar      1 <0>         0.1905
      4 N1         -0.3458   -2.0455   -1.1214 N.ar      1 <0>        -0.5572
      5 C4         -0.0433   -2.6914   -0.0044 C.ar      1 <0>         0.5594
      6 N2          0.1650   -2.0504    1.1349 N.ar      1 <0>        -0.5538
      7 C5          0.0821   -0.7225    1.1904 C.ar      1 <0>         0.2986
      8 C6          0.3223   -0.0063    2.4652 C.2       1 <0>        -0.1534
      9 C7         -0.0086   -0.4639    3.7569 C.2       1 <0>        -0.0523
     10 C8          0.3867    0.5015    4.6378 C.2       1 <0>        -0.0604
     11 N3          0.9486    1.5340    3.9208 N.pl3     1 <0>        -0.5291
     12 H1          1.3135    2.3490    4.2997 H         1 <0>         0.4210
     13 C9          0.9160    1.2284    2.6098 C.2       1 <0>         0.0706
     14 C10         0.2375    0.4484    6.0968 C.2       1 <0>         0.5921
     15 O1         -0.2785   -0.5212    6.6207 O.2       1 <0>        -0.5248
     16 N4          0.6720    1.4734    6.8564 N.am      1 <0>        -0.7188
     17 C11         0.5231    1.4203    8.3128 C.3       1 <0>         0.1925
     18 H2          0.6519    0.3931    8.6540 H         1 <0>         0.1122
     19 C12        -0.8714    1.9156    8.7013 C.3       1 <0>         0.0676
     20 O2         -0.9989    3.2970    8.3583 O.3       1 <0>        -0.5670
     21 C13         1.5653    2.2980    8.9567 C.ar      1 <0>        -0.0931
     22 C14         1.8772    3.5237    8.3987 C.ar      1 <0>        -0.0918
     23 C15         2.8332    4.3287    8.9893 C.ar      1 <0>        -0.1209
     24 C16         3.4770    3.9083   10.1380 C.ar      1 <0>        -0.1155
     25 C17         3.1645    2.6830   10.6965 C.ar      1 <0>        -0.1183
     26 C18         2.2054    1.8798   10.1083 C.ar      1 <0>        -0.1083
     27 N5          0.0571   -4.0729   -0.0296 N.pl3     1 <0>        -0.6425
     28 C19        -0.0448   -4.7591   -1.2435 C.ar      1 <0>         0.1665
     29 C20         0.5392   -4.2358   -2.3900 C.ar      1 <0>        -0.1106
     30 C21         0.4371   -4.9165   -3.5873 C.ar      1 <0>        -0.1014
     31 C22        -0.2455   -6.1177   -3.6456 C.ar      1 <0>        -0.1370
     32 C23        -0.8284   -6.6412   -2.5061 C.ar      1 <0>        -0.1002
     33 C24        -0.7252   -5.9685   -1.3043 C.ar      1 <0>        -0.1467
     34 H3          0.6189    1.9269   -0.1800 H         1 <0>         0.0691
     35 H4         -1.0792    1.8074   -0.7003 H         1 <0>         0.0695
     36 H5         -0.6782    1.8161    1.0339 H         1 <0>         0.0732
     37 H6         -0.6985   -0.2100   -2.0547 H         1 <0>         0.1692
     38 H7         -0.4849   -1.4014    4.0033 H         1 <0>         0.1549
     39 H8          1.2901    1.8472    1.8076 H         1 <0>         0.1843
     40 H9          1.0833    2.2463    6.4388 H         1 <0>         0.3963
     41 H10        -1.6246    1.3374    8.1661 H         1 <0>         0.0576
     42 H11        -1.0145    1.7931    9.7749 H         1 <0>         0.0586
     43 H12        -1.8602    3.6786    8.5768 H         1 <0>         0.3810
     44 H13         1.3742    3.8522    7.5013 H         1 <0>         0.1207
     45 H14         3.0774    5.2860    8.5530 H         1 <0>         0.1230
     46 H15         4.2245    4.5370   10.5990 H         1 <0>         0.1229
     47 H16         3.6678    2.3543   11.5938 H         1 <0>         0.1248
     48 H17         1.9586    0.9241   10.5467 H         1 <0>         0.1243
     49 H18         0.1980   -4.5641    0.7949 H         1 <0>         0.4232
     50 H19         1.0721   -3.2976   -2.3452 H         1 <0>         0.1263
     51 H20         0.8906   -4.5100   -4.4792 H         1 <0>         0.1238
     52 H21        -0.3238   -6.6480   -4.5831 H         1 <0>         0.1222
     53 H22        -1.3614   -7.5793   -2.5551 H         1 <0>         0.1252
     54 H23        -1.1769   -6.3801   -0.4138 H         1 <0>         0.1238
@<TRIPOS>BOND
     1    1    2 1
     2    1   34 1
     3    1   35 1
     4    1   36 1
     5    2    7 ar
     6    2    3 ar
     7    3    4 ar
     8    3   37 1
     9    4    5 ar
    10    5    6 ar
    11    5   27 1
    12    6    7 ar
    13    7    8 1
    14    8   13 2
    15    8    9 1
    16    9   10 2
    17    9   38 1
    18   10   11 1
    19   10   14 1
    20   11   12 1
    21   11   13 1
    22   13   39 1
    23   14   15 2
    24   14   16 am
    25   16   17 1
    26   16   40 1
    27   17   18 1
    28   17   19 1
    29   17   21 1
    30   19   20 1
    31   19   41 1
    32   19   42 1
    33   20   43 1
    34   21   26 ar
    35   21   22 ar
    36   22   23 ar
    37   22   44 1
    38   23   24 ar
    39   23   45 1
    40   24   25 ar
    41   24   46 1
    42   25   26 ar
    43   25   47 1
    44   26   48 1
    45   27   28 1
    46   27   49 1
    47   28   33 ar
    48   28   29 ar
    49   29   30 ar
    50   29   50 1
    51   30   31 ar
    52   30   51 1
    53   31   32 ar
    54   31   52 1
    55   32   33 ar
    56   32   53 1
    57   33   54 1
@<TRIPOS>MOLECULE
CHEMBL136575
   49    53     0     0     0
SMALL
USER_CHARGES

@<TRIPOS>ATOM
      1 C1         -0.0169    1.3926    0.0097 C.ar      1 <0>        -0.1600
      2 C2          1.1701    2.0952    0.0021 C.ar      1 <0>        -0.0003
      3 C3          2.3776    1.4196   -0.0135 C.ar      1 <0>        -0.7263
      4 C4          2.4039    0.0362   -0.0212 C.ar      1 <0>         0.0055
      5 C5          1.2248   -0.6794   -0.0133 C.ar      1 <0>        -0.2109
      6 C6          0.0021   -0.0041    0.0020 C.ar      1 <0>         0.2094
      7 N1         -1.1715   -0.7074    0.0099 N.2       1 <0>        -0.5535
      8 C7         -1.3288   -1.7274   -0.7959 C.2       1 <0>         0.2968
      9 C8         -2.5441   -2.4557   -0.7877 C.2       1 <0>        -0.3529
     10 C9         -2.8793   -3.6262   -1.6221 C.ar      1 <0>         0.0138
     11 C10        -4.1834   -3.9978   -1.2596 C.ar      1 <0>         0.1033
     12 C11        -4.7758   -5.0906   -1.8928 C.ar      1 <0>        -0.1029
     13 C12        -4.1207   -5.8000   -2.8480 C.ar      1 <0>        -0.0807
     14 C13        -2.8055   -5.4575   -3.2414 C.ar      1 <0>         0.0492
     15 C14        -2.2145   -4.3517   -2.5969 C.ar      1 <0>        -0.1296
     16 S1         -0.6206   -4.2805   -3.3715 S.3       1 <0>         0.0585
     17 C15        -0.8043   -5.5931   -4.4088 C.2       1 <0>         0.0416
     18 N2         -2.0025   -6.0345   -4.1599 N.2       1 <0>        -0.5027
     19 N3         -4.6177   -3.1251   -0.2790 N.pl3     1 <0>        -0.6236
     20 H1         -5.4887   -3.1608    0.1464 H         1 <0>         0.4033
     21 C16        -3.6518   -2.2141    0.0096 C.2       1 <0>         0.4924
     22 O1         -3.7559   -1.2261    0.9273 O.3       1 <0>        -0.6323
     23 S2          3.8890    2.3254   -0.0242 S.o2      1 <0>         2.7013
     24 O2          4.8718    1.4688   -0.5893 O.2       1 <0>        -0.9682
     25 O3          3.5916    3.6051   -0.5656 O.2       1 <0>        -0.9698
     26 N4          4.3249    2.5692    1.5547 N.pl3     1 <0>        -1.1215
     27 C17         4.6711    1.4266    2.4038 C.3       1 <0>         0.1240
     28 C18         5.3824    1.9244    3.6636 C.3       1 <0>        -0.0382
     29 C19         5.7385    0.7490    4.5370 C.2       1 <0>         0.0037
     30 C20         6.9670    0.4519    5.0018 C.2       1 <0>        -0.0522
     31 N5          6.8426   -0.6880    5.7493 N.pl3     1 <0>        -0.5721
     32 H2          7.5559   -1.1508    6.2162 H         1 <0>         0.4199
     33 C21         5.5415   -1.0480    5.7152 C.2       1 <0>         0.1872
     34 N6          4.8863   -0.1812    4.9925 N.2       1 <0>        -0.4837
     35 H3         -0.9586    1.9211    0.0260 H         1 <0>         0.1300
     36 H4          1.1570    3.1751    0.0081 H         1 <0>         0.1317
     37 H5          3.3500   -0.4846   -0.0337 H         1 <0>         0.1283
     38 H6          1.2468   -1.7591   -0.0197 H         1 <0>         0.1226
     39 H7         -0.5323   -2.0136   -1.4668 H         1 <0>         0.0783
     40 H8         -5.7791   -5.3796   -1.6166 H         1 <0>         0.1238
     41 H9         -4.6123   -6.6405   -3.3151 H         1 <0>         0.1258
     42 H10        -0.0895   -5.9812   -5.1193 H         1 <0>         0.2128
     43 H11         4.3511    3.4684    1.9173 H         1 <0>         0.4152
     44 H12         3.7622    0.8950    2.6857 H         1 <0>         0.0767
     45 H13         5.3306    0.7535    1.8560 H         1 <0>         0.0773
     46 H14         6.2912    2.4560    3.3816 H         1 <0>         0.0821
     47 H15         4.7228    2.5975    4.2113 H         1 <0>         0.0825
     48 H16         7.8757    1.0063    4.8195 H         1 <0>         0.1764
     49 H17         5.1134   -1.9085    6.2079 H         1 <0>         0.2083
@<TRIPOS>BOND
     1    1    6 ar
     2    1    2 ar
     3    1   35 1
     4    2    3 ar
     5    2   36 1
     6    3    4 ar
     7    3   23 1
     8    4    5 ar
     9    4   37 1
    10    5    6 ar
    11    5   38 1
    12    6    7 1
    13    7    8 2
    14    8    9 1
    15    8   39 1
    16    9   21 2
    17    9   10 1
    18   10   15 ar
    19   10   11 ar
    20   11   12 ar
    21   11   19 1
    22   12   13 ar
    23   12   40 1
    24   13   14 ar
    25   13   41 1
    26   14   18 1
    27   14   15 ar
    28   15   16 1
    29   16   17 1
    30   17   18 2
    31   17   42 1
    32   19   20 1
    33   19   21 1
    34   21   22 1
    35   23   24 2
    36   23   25 2
    37   23   26 1
    38   26   27 1
    39   26   43 1
    40   27   28 1
    41   27   44 1
    42   27   45 1
    43   28   29 1
    44   28   46 1
    45   28   47 1
    46   29   34 1
    47   29   30 2
    48   30   31 1
    49   30   48 1
    50   31   32 1
    51   31   33 1
    52   33   34 2
    53   33   49 1
@<TRIPOS>MOLECULE
CHEMBL136575
   49    53     0     0     0
SMALL
USER_CHARGES

@<TRIPOS>ATOM
      1 C1         -0.0169    1.3926    0.0097 C.ar      1 <0>        -0.1608
      2 C2          1.1701    2.0952    0.0021 C.ar      1 <0>        -0.0006
      3 C3          2.3776    1.4196   -0.0135 C.ar      1 <0>        -0.7290
      4 C4          2.4039    0.0362   -0.0212 C.ar      1 <0>         0.0038
      5 C5          1.2248   -0.6794   -0.0133 C.ar      1 <0>        -0.2128
      6 C6          0.0021   -0.0041    0.0020 C.ar      1 <0>         0.2111
      7 N1         -1.1715   -0.7074    0.0099 N.2       1 <0>        -0.5565
      8 C7         -1.3288   -1.7274   -0.7959 C.2       1 <0>         0.2983
      9 C8         -2.5441   -2.4557   -0.7877 C.2       1 <0>        -0.3527
     10 C9         -2.8793   -3.6262   -1.6221 C.ar      1 <0>         0.0132
     11 C10        -4.1834   -3.9978   -1.2596 C.ar      1 <0>         0.1040
     12 C11        -4.7758   -5.0906   -1.8928 C.ar      1 <0>        -0.1031
     13 C12        -4.1207   -5.8000   -2.8480 C.ar      1 <0>        -0.0793
     14 C13        -2.8055   -5.4575   -3.2414 C.ar      1 <0>         0.0498
     15 C14        -2.2145   -4.3517   -2.5969 C.ar      1 <0>        -0.1298
     16 S1         -0.6206   -4.2805   -3.3715 S.3       1 <0>         0.0584
     17 C15        -0.8043   -5.5931   -4.4088 C.2       1 <0>         0.0432
     18 N2         -2.0025   -6.0345   -4.1599 N.2       1 <0>        -0.5025
     19 N3         -4.6177   -3.1251   -0.2790 N.pl3     1 <0>        -0.6236
     20 H1         -5.4887   -3.1608    0.1464 H         1 <0>         0.4036
     21 C16        -3.6518   -2.2141    0.0096 C.2       1 <0>         0.4932
     22 O1         -3.7559   -1.2261    0.9273 O.3       1 <0>        -0.6330
     23 S2          3.8890    2.3254   -0.0242 S.o2      1 <0>         2.7004
     24 O2          4.8718    1.4688   -0.5893 O.2       1 <0>        -0.9644
     25 O3          3.5916    3.6051   -0.5656 O.2       1 <0>        -0.9670
     26 N4          4.3249    2.5692    1.5547 N.pl3     1 <0>        -1.1215
     27 C17         4.6711    1.4266    2.4038 C.3       1 <0>         0.1203
     28 C18         5.3824    1.9244    3.6636 C.3       1 <0>        -0.0483
     29 C19         5.7385    0.7490    4.5370 C.2       1 <0>        -0.0257
     30 C20         6.8389   -0.0209    4.4375 C.2       1 <0>        -0.0169
     31 N5          6.7799   -0.9552    5.3980 N.2       1 <0>        -0.4947
     32 H2          4.1621    0.6097    5.9103 H         1 <0>         0.4205
     33 C21         5.6847   -0.7935    6.0890 C.2       1 <0>         0.1863
     34 N6          5.0084    0.2625    5.5877 N.pl3     1 <0>        -0.5658
     35 H3         -0.9586    1.9211    0.0260 H         1 <0>         0.1303
     36 H4          1.1570    3.1751    0.0081 H         1 <0>         0.1319
     37 H5          3.3500   -0.4846   -0.0337 H         1 <0>         0.1292
     38 H6          1.2468   -1.7591   -0.0197 H         1 <0>         0.1230
     39 H7         -0.5323   -2.0136   -1.4668 H         1 <0>         0.0788
     40 H8         -5.7791   -5.3796   -1.6166 H         1 <0>         0.1243
     41 H9         -4.6123   -6.6405   -3.3151 H         1 <0>         0.1264
     42 H10        -0.0895   -5.9812   -5.1193 H         1 <0>         0.2133
     43 H11         4.3511    3.4684    1.9173 H         1 <0>         0.4161
     44 H12         3.7622    0.8950    2.6857 H         1 <0>         0.0667
     45 H13         5.3306    0.7535    1.8560 H         1 <0>         0.0869
     46 H14         6.2912    2.4560    3.3816 H         1 <0>         0.0975
     47 H15         4.7228    2.5975    4.2113 H         1 <0>         0.0787
     48 H16         7.6302    0.0939    3.7115 H         1 <0>         0.1710
     49 H17         5.3726   -1.4013    6.9253 H         1 <0>         0.2080
@<TRIPOS>BOND
     1    1    6 ar
     2    1    2 ar
     3    1   35 1
     4    2    3 ar
     5    2   36 1
     6    3    4 ar
     7    3   23 1
     8    4    5 ar
     9    4   37 1
    10    5    6 ar
    11    5   38 1
    12    6    7 1
    13    7    8 2
    14    8    9 1
    15    8   39 1
    16    9   21 2
    17    9   10 1
    18   10   15 ar
    19   10   11 ar
    20   11   12 ar
    21   11   19 1
    22   12   13 ar
    23   12   40 1
    24   13   14 ar
    25   13   41 1
    26   14   18 1
    27   14   15 ar
    28   15   16 1
    29   16   17 1
    30   17   18 2
    31   17   42 1
    32   19   20 1
    33   19   21 1
    34   21   22 1
    35   23   24 2
    36   23   25 2
    37   23   26 1
    38   26   27 1
    39   26   43 1
    40   27   28 1
    41   27   44 1
    42   27   45 1
    43   28   46 1
    44   28   47 1
    45   28   29 1
    46   29   30 2
    47   29   34 1
    48   30   31 1
    49   30   48 1
    50   31   33 2
    51   32   34 1
    52   33   49 1
    53   33   34 1
@<TRIPOS>MOLECULE
CHEMBL136575
   50    54     0     0     0
SMALL
USER_CHARGES

@<TRIPOS>ATOM
      1 C1         -0.0169    1.3926    0.0097 C.ar      1 <0>        -0.1604
      2 C2          1.1701    2.0952    0.0021 C.ar      1 <0>         0.0017
      3 C3          2.3776    1.4196   -0.0135 C.ar      1 <0>        -0.7358
      4 C4          2.4039    0.0362   -0.0212 C.ar      1 <0>         0.0008
      5 C5          1.2248   -0.6794   -0.0133 C.ar      1 <0>        -0.2167
      6 C6          0.0021   -0.0041    0.0020 C.ar      1 <0>         0.2203
      7 N1         -1.1715   -0.7074    0.0099 N.2       1 <0>        -0.5637
      8 C7         -1.3288   -1.7274   -0.7959 C.2       1 <0>         0.3022
      9 C8         -2.5441   -2.4557   -0.7877 C.2       1 <0>        -0.3513
     10 C9         -2.8793   -3.6262   -1.6221 C.ar      1 <0>         0.0097
     11 C10        -4.1834   -3.9978   -1.2596 C.ar      1 <0>         0.1087
     12 C11        -4.7758   -5.0906   -1.8928 C.ar      1 <0>        -0.1038
     13 C12        -4.1207   -5.8000   -2.8480 C.ar      1 <0>        -0.0741
     14 C13        -2.8055   -5.4575   -3.2414 C.ar      1 <0>         0.0501
     15 C14        -2.2145   -4.3517   -2.5969 C.ar      1 <0>        -0.1286
     16 S1         -0.6206   -4.2805   -3.3715 S.3       1 <0>         0.0520
     17 C15        -0.8043   -5.5931   -4.4088 C.2       1 <0>         0.0466
     18 N2         -2.0025   -6.0345   -4.1599 N.2       1 <0>        -0.5002
     19 N3         -4.6177   -3.1251   -0.2790 N.pl3     1 <0>        -0.6237
     20 H1         -5.4887   -3.1608    0.1464 H         1 <0>         0.4054
     21 C16        -3.6518   -2.2141    0.0096 C.2       1 <0>         0.4958
     22 O1         -3.7559   -1.2261    0.9273 O.3       1 <0>        -0.6312
     23 S2          3.8890    2.3254   -0.0242 S.o2      1 <0>         2.6985
     24 O2          4.8718    1.4688   -0.5893 O.2       1 <0>        -0.9657
     25 O3          3.5916    3.6051   -0.5656 O.2       1 <0>        -0.9569
     26 N4          4.3249    2.5692    1.5547 N.pl3     1 <0>        -1.1234
     27 C17         4.6711    1.4266    2.4038 C.3       1 <0>         0.1176
     28 C18         5.3824    1.9244    3.6636 C.3       1 <0>        -0.0712
     29 C19         5.7385    0.7490    4.5370 C.2       1 <0>         0.0339
     30 C20         4.9281    0.1555    5.4340 C.2       1 <0>         0.0410
     31 N5          5.6447   -0.8631    6.0019 N.pl3     1 <0>        -0.5089
     32 H2          5.3317   -1.4754    6.6861 H         1 <0>         0.4680
     33 C21         6.8689   -0.8566    5.4318 C.cat     1 <0>         0.3049
     34 N6          6.9160    0.1071    4.5531 N.pl3     1 <0>        -0.4733
     35 H3         -0.9586    1.9211    0.0260 H         1 <0>         0.1323
     36 H4          1.1570    3.1751    0.0081 H         1 <0>         0.1326
     37 H5          3.3500   -0.4846   -0.0337 H         1 <0>         0.1246
     38 H6          1.2468   -1.7591   -0.0197 H         1 <0>         0.1223
     39 H7         -0.5323   -2.0136   -1.4668 H         1 <0>         0.0793
     40 H8         -5.7791   -5.3796   -1.6166 H         1 <0>         0.1265
     41 H9         -4.6123   -6.6405   -3.3151 H         1 <0>         0.1287
     42 H10        -0.0895   -5.9812   -5.1193 H         1 <0>         0.2141
     43 H11         4.3511    3.4684    1.9173 H         1 <0>         0.4200
     44 H12         3.7622    0.8950    2.6857 H         1 <0>         0.0795
     45 H13         5.3306    0.7535    1.8560 H         1 <0>         0.0833
     46 H14         6.2912    2.4560    3.3816 H         1 <0>         0.1057
     47 H15         4.7228    2.5975    4.2113 H         1 <0>         0.1216
     48 H16         3.9089    0.4305    5.6617 H         1 <0>         0.2293
     49 H17         7.6742   -1.5385    5.6619 H         1 <0>         0.2664
     50 H18         7.6824    0.3259    4.0002 H         1 <0>         0.4656
@<TRIPOS>BOND
     1    1    6 ar
     2    1    2 ar
     3    1   35 1
     4    2    3 ar
     5    2   36 1
     6    3    4 ar
     7    3   23 1
     8    4    5 ar
     9    4   37 1
    10    5    6 ar
    11    5   38 1
    12    6    7 1
    13    7    8 2
    14    8    9 1
    15    8   39 1
    16    9   21 2
    17    9   10 1
    18   10   15 ar
    19   10   11 ar
    20   11   12 ar
    21   11   19 1
    22   12   13 ar
    23   12   40 1
    24   13   14 ar
    25   13   41 1
    26   14   18 1
    27   14   15 ar
    28   15   16 1
    29   16   17 1
    30   17   18 2
    31   17   42 1
    32   19   20 1
    33   19   21 1
    34   21   22 1
    35   23   24 2
    36   23   25 2
    37   23   26 1
    38   26   27 1
    39   26   43 1
    40   27   28 1
    41   27   44 1
    42   27   45 1
    43   28   29 1
    44   28   46 1
    45   28   47 1
    46   29   34 1
    47   29   30 2
    48   30   31 1
    49   30   48 1
    50   31   32 1
    51   31   33 1
    52   33   34 2
    53   33   49 1
    54   34   50 1
@<TRIPOS>MOLECULE
CHEMBL136575
   50    54     0     0     0
SMALL
USER_CHARGES

@<TRIPOS>ATOM
      1 C1         -0.0169    1.3926    0.0097 C.ar      1 <0>        -0.1338
      2 C2          1.1701    2.0952    0.0021 C.ar      1 <0>        -0.0029
      3 C3          2.3776    1.4196   -0.0135 C.ar      1 <0>        -0.6959
      4 C4          2.4039    0.0362   -0.0212 C.ar      1 <0>        -0.0005
      5 C5          1.2248   -0.6794   -0.0133 C.ar      1 <0>        -0.1812
      6 C6          0.0021   -0.0041    0.0020 C.ar      1 <0>         0.1582
      7 N1         -1.1715   -0.7074    0.0099 N.2       1 <0>        -0.5050
      8 C7         -1.3288   -1.7274   -0.7959 C.2       1 <0>         0.2613
      9 C8         -2.5441   -2.4557   -0.7877 C.2       1 <0>        -0.1894
     10 C9         -2.8793   -3.6262   -1.6221 C.ar      1 <0>        -0.0155
     11 C10        -4.1834   -3.9978   -1.2596 C.ar      1 <0>         0.1090
     12 C11        -4.7758   -5.0906   -1.8928 C.ar      1 <0>        -0.0962
     13 C12        -4.1207   -5.8000   -2.8480 C.ar      1 <0>        -0.0414
     14 C13        -2.8055   -5.4575   -3.2414 C.ar      1 <0>         0.0745
     15 C14        -2.2145   -4.3517   -2.5969 C.ar      1 <0>        -0.1307
     16 S1         -0.6206   -4.2805   -3.3715 S.3       1 <0>         0.1005
     17 C15        -0.8043   -5.5931   -4.4088 C.2       1 <0>         0.0702
     18 N2         -2.0025   -6.0345   -4.1599 N.2       1 <0>        -0.5028
     19 N3         -4.6177   -3.1251   -0.2790 N.pl3     1 <0>        -0.5712
     20 H1         -5.4887   -3.1608    0.1464 H         1 <0>         0.4248
     21 C16        -3.6518   -2.2141    0.0096 C.2       1 <0>         0.3515
     22 O1         -3.7559   -1.2261    0.9273 O.3       1 <0>        -0.4410
     23 S2          3.8890    2.3254   -0.0242 S.o2      1 <0>         2.6972
     24 O2          4.8718    1.4688   -0.5893 O.2       1 <0>        -0.9531
     25 O3          3.5916    3.6051   -0.5656 O.2       1 <0>        -0.9565
     26 N4          4.3249    2.5692    1.5547 N.pl3     1 <0>        -1.1182
     27 C17         4.6711    1.4266    2.4038 C.3       1 <0>         0.1193
     28 C18         5.3824    1.9244    3.6636 C.3       1 <0>        -0.0482
     29 C19         5.7385    0.7490    4.5370 C.2       1 <0>        -0.0307
     30 C20         6.8389   -0.0209    4.4375 C.2       1 <0>        -0.0134
     31 N5          6.7799   -0.9552    5.3980 N.2       1 <0>        -0.4928
     32 H2          4.1621    0.6097    5.9103 H         1 <0>         0.4195
     33 C21         5.6847   -0.7935    6.0890 C.2       1 <0>         0.1886
     34 N6          5.0084    0.2625    5.5877 N.pl3     1 <0>        -0.5671
     35 H3         -0.9586    1.9211    0.0260 H         1 <0>         0.1373
     36 H4          1.1570    3.1751    0.0081 H         1 <0>         0.1439
     37 H5          3.3500   -0.4846   -0.0337 H         1 <0>         0.1417
     38 H6          1.2468   -1.7591   -0.0197 H         1 <0>         0.1316
     39 H7         -0.5323   -2.0136   -1.4668 H         1 <0>         0.1084
     40 H8         -5.7791   -5.3796   -1.6166 H         1 <0>         0.1398
     41 H9         -4.6123   -6.6405   -3.3151 H         1 <0>         0.1440
     42 H10        -0.0895   -5.9812   -5.1193 H         1 <0>         0.2253
     43 H11        -4.1134   -0.3991    0.5761 H         1 <0>         0.4074
     44 H12         4.3511    3.4684    1.9173 H         1 <0>         0.4200
     45 H13         3.7622    0.8950    2.6857 H         1 <0>         0.0649
     46 H14         5.3306    0.7535    1.8560 H         1 <0>         0.0889
     47 H15         6.2912    2.4560    3.3816 H         1 <0>         0.0998
     48 H16         4.7228    2.5975    4.2113 H         1 <0>         0.0795
     49 H17         7.6302    0.0939    3.7115 H         1 <0>         0.1718
     50 H18         5.3726   -1.4013    6.9253 H         1 <0>         0.2089
@<TRIPOS>BOND
     1    1    6 ar
     2    1    2 ar
     3    1   35 1
     4    2    3 ar
     5    2   36 1
     6    3    4 ar
     7    3   23 1
     8    4    5 ar
     9    4   37 1
    10    5    6 ar
    11    5   38 1
    12    6    7 1
    13    7    8 2
    14    8    9 1
    15    8   39 1
    16    9   21 2
    17    9   10 1
    18   10   15 ar
    19   10   11 ar
    20   11   12 ar
    21   11   19 1
    22   12   13 ar
    23   12   40 1
    24   13   14 ar
    25   13   41 1
    26   14   18 1
    27   14   15 ar
    28   15   16 1
    29   16   17 1
    30   17   18 2
    31   17   42 1
    32   19   20 1
    33   19   21 1
    34   21   22 1
    35   22   43 1
    36   23   24 2
    37   23   25 2
    38   23   26 1
    39   26   27 1
    40   26   44 1
    41   27   28 1
    42   27   45 1
    43   27   46 1
    44   28   47 1
    45   28   48 1
    46   28   29 1
    47   29   30 2
    48   29   34 1
    49   30   31 1
    50   30   49 1
    51   31   33 2
    52   32   34 1
    53   33   50 1
    54   33   34 1
@<TRIPOS>MOLECULE
CHEMBL136575
   50    54     0     0     0
SMALL
USER_CHARGES

@<TRIPOS>ATOM
      1 C1         -0.0169    1.3926    0.0097 C.ar      1 <0>        -0.1331
      2 C2          1.1701    2.0952    0.0021 C.ar      1 <0>        -0.0027
      3 C3          2.3776    1.4196   -0.0135 C.ar      1 <0>        -0.6935
      4 C4          2.4039    0.0362   -0.0212 C.ar      1 <0>         0.0012
      5 C5          1.2248   -0.6794   -0.0133 C.ar      1 <0>        -0.1794
      6 C6          0.0021   -0.0041    0.0020 C.ar      1 <0>         0.1564
      7 N1         -1.1715   -0.7074    0.0099 N.2       1 <0>        -0.5016
      8 C7         -1.3288   -1.7274   -0.7959 C.2       1 <0>         0.2580
      9 C8         -2.5441   -2.4557   -0.7877 C.2       1 <0>        -0.1877
     10 C9         -2.8793   -3.6262   -1.6221 C.ar      1 <0>        -0.0159
     11 C10        -4.1834   -3.9978   -1.2596 C.ar      1 <0>         0.1091
     12 C11        -4.7758   -5.0906   -1.8928 C.ar      1 <0>        -0.0962
     13 C12        -4.1207   -5.8000   -2.8480 C.ar      1 <0>        -0.0421
     14 C13        -2.8055   -5.4575   -3.2414 C.ar      1 <0>         0.0735
     15 C14        -2.2145   -4.3517   -2.5969 C.ar      1 <0>        -0.1297
     16 S1         -0.6206   -4.2805   -3.3715 S.3       1 <0>         0.1010
     17 C15        -0.8043   -5.5931   -4.4088 C.2       1 <0>         0.0686
     18 N2         -2.0025   -6.0345   -4.1599 N.2       1 <0>        -0.5029
     19 N3         -4.6177   -3.1251   -0.2790 N.pl3     1 <0>        -0.5717
     20 H1         -5.4887   -3.1608    0.1464 H         1 <0>         0.4246
     21 C16        -3.6518   -2.2141    0.0096 C.2       1 <0>         0.3505
     22 O1         -3.7559   -1.2261    0.9273 O.3       1 <0>        -0.4403
     23 S2          3.8890    2.3254   -0.0242 S.o2      1 <0>         2.6979
     24 O2          4.8718    1.4688   -0.5893 O.2       1 <0>        -0.9571
     25 O3          3.5916    3.6051   -0.5656 O.2       1 <0>        -0.9595
     26 N4          4.3249    2.5692    1.5547 N.pl3     1 <0>        -1.1181
     27 C17         4.6711    1.4266    2.4038 C.3       1 <0>         0.1231
     28 C18         5.3824    1.9244    3.6636 C.3       1 <0>        -0.0379
     29 C19         5.7385    0.7490    4.5370 C.2       1 <0>        -0.0010
     30 C20         6.9670    0.4519    5.0018 C.2       1 <0>        -0.0471
     31 N5          6.8426   -0.6880    5.7493 N.pl3     1 <0>        -0.5701
     32 H2          7.5559   -1.1508    6.2162 H         1 <0>         0.4220
     33 C21         5.5415   -1.0480    5.7152 C.2       1 <0>         0.1876
     34 N6          4.8863   -0.1812    4.9925 N.2       1 <0>        -0.4880
     35 H3         -0.9586    1.9211    0.0260 H         1 <0>         0.1369
     36 H4          1.1570    3.1751    0.0081 H         1 <0>         0.1437
     37 H5          3.3500   -0.4846   -0.0337 H         1 <0>         0.1407
     38 H6          1.2468   -1.7591   -0.0197 H         1 <0>         0.1310
     39 H7         -0.5323   -2.0136   -1.4668 H         1 <0>         0.1079
     40 H8         -5.7791   -5.3796   -1.6166 H         1 <0>         0.1394
     41 H9         -4.6123   -6.6405   -3.3151 H         1 <0>         0.1435
     42 H10        -0.0895   -5.9812   -5.1193 H         1 <0>         0.2248
     43 H11        -4.1134   -0.3991    0.5761 H         1 <0>         0.4072
     44 H12         4.3511    3.4684    1.9173 H         1 <0>         0.4191
     45 H13         3.7622    0.8950    2.6857 H         1 <0>         0.0749
     46 H14         5.3306    0.7535    1.8560 H         1 <0>         0.0792
     47 H15         6.2912    2.4560    3.3816 H         1 <0>         0.0845
     48 H16         4.7228    2.5975    4.2113 H         1 <0>         0.0831
     49 H17         7.8757    1.0063    4.8195 H         1 <0>         0.1777
     50 H18         5.1134   -1.9085    6.2079 H         1 <0>         0.2084
@<TRIPOS>BOND
     1    1    6 ar
     2    1    2 ar
     3    1   35 1
     4    2    3 ar
     5    2   36 1
     6    3    4 ar
     7    3   23 1
     8    4    5 ar
     9    4   37 1
    10    5    6 ar
    11    5   38 1
    12    6    7 1
    13    7    8 2
    14    8    9 1
    15    8   39 1
    16    9   21 2
    17    9   10 1
    18   10   15 ar
    19   10   11 ar
    20   11   12 ar
    21   11   19 1
    22   12   13 ar
    23   12   40 1
    24   13   14 ar
    25   13   41 1
    26   14   18 1
    27   14   15 ar
    28   15   16 1
    29   16   17 1
    30   17   18 2
    31   17   42 1
    32   19   20 1
    33   19   21 1
    34   21   22 1
    35   22   43 1
    36   23   24 2
    37   23   25 2
    38   23   26 1
    39   26   27 1
    40   26   44 1
    41   27   28 1
    42   27   45 1
    43   27   46 1
    44   28   29 1
    45   28   47 1
    46   28   48 1
    47   29   34 1
    48   29   30 2
    49   30   31 1
    50   30   49 1
    51   31   32 1
    52   31   33 1
    53   33   34 2
    54   33   50 1
@<TRIPOS>MOLECULE
CHEMBL203707
   46    49     0     0     0
SMALL
USER_CHARGES

@<TRIPOS>ATOM
      1 C1          0.0037    1.4156    0.0108 C.ar      1 <0>        -0.1139
      2 C2          1.1952    2.1164   -0.0028 C.ar      1 <0>        -0.1182
      3 C3          2.3977    1.4349   -0.0180 C.ar      1 <0>        -0.1032
      4 C4          2.4089    0.0526   -0.0191 C.ar      1 <0>        -0.0793
      5 C5          1.2174   -0.6482   -0.0046 C.ar      1 <0>        -0.1032
      6 C6          0.0148    0.0333    0.0092 C.ar      1 <0>        -0.1183
      7 C7          3.7199   -0.6904   -0.0367 C.3       1 <0>        -0.0956
      8 C8          4.1753   -0.9391    1.3781 C.2       1 <0>         0.5207
      9 O1          3.5016   -0.5512    2.3091 O.2       1 <0>        -0.5150
     10 N1          5.3313   -1.5926    1.6089 N.am      1 <0>        -0.6466
     11 C9          5.7528   -1.8227    2.9184 C.2       1 <0>         0.3622
     12 C10         6.8952   -2.4612    3.2957 C.2       1 <0>        -0.3134
     13 C11         6.9366   -2.4773    4.6911 C.2       1 <0>         0.0677
     14 N2          5.8638   -1.8737    5.1407 N.2       1 <0>        -0.2474
     15 N3          5.1045   -1.4474    4.0442 N.pl3     1 <0>        -0.4523
     16 H1          4.2615   -0.9694    4.0849 H         1 <0>         0.4563
     17 C12         8.1968   -3.1816    5.1268 C.3       1 <0>         0.1912
     18 N4          8.9197   -3.5929    3.9195 N.am      1 <0>        -0.6273
     19 C13         8.1256   -3.1536    2.7681 C.3       1 <0>         0.2222
     20 C14        10.0947   -4.2518    3.8763 C.2       1 <0>         0.7358
     21 O2         10.5932   -4.5361    2.8044 O.2       1 <0>        -0.5605
     22 N5         10.7171   -4.5955    5.0213 N.am      1 <0>        -0.6823
     23 C15        11.8864   -5.3632    4.9788 C.ar      1 <0>         0.1591
     24 C16        12.1370   -6.3044    5.9686 C.ar      1 <0>        -0.1454
     25 C17        13.2917   -7.0609    5.9236 C.ar      1 <0>        -0.1016
     26 C18        14.1978   -6.8818    4.8944 C.ar      1 <0>        -0.1348
     27 C19        13.9513   -5.9450    3.9076 C.ar      1 <0>        -0.1020
     28 C20        12.7957   -5.1894    3.9438 C.ar      1 <0>        -0.1193
     29 H2         -0.9358    1.9480    0.0272 H         1 <0>         0.1235
     30 H3          1.1865    3.1963   -0.0019 H         1 <0>         0.1241
     31 H4          3.3286    1.9824   -0.0293 H         1 <0>         0.1206
     32 H5          1.2261   -1.7282   -0.0059 H         1 <0>         0.1206
     33 H6         -0.9161   -0.5143    0.0201 H         1 <0>         0.1241
     34 H7          3.5905   -1.6435   -0.5496 H         1 <0>         0.1150
     35 H8          4.4680   -0.0948   -0.5599 H         1 <0>         0.1150
     36 H9          5.8700   -1.9028    0.8643 H         1 <0>         0.4316
     37 H10         8.8150   -2.5026    5.7140 H         1 <0>         0.0933
     38 H11         7.9427   -4.0587    5.7219 H         1 <0>         0.0935
     39 H12         7.8353   -4.0165    2.1688 H         1 <0>         0.0770
     40 H13         8.7077   -2.4603    2.1609 H         1 <0>         0.0771
     41 H14        10.3546   -4.3107    5.8747 H         1 <0>         0.4082
     42 H15        11.4300   -6.4446    6.7728 H         1 <0>         0.1250
     43 H16        13.4874   -7.7928    6.6933 H         1 <0>         0.1263
     44 H17        15.1000   -7.4745    4.8615 H         1 <0>         0.1231
     45 H18        14.6610   -5.8072    3.1053 H         1 <0>         0.1257
     46 H19        12.6014   -4.4613    3.1701 H         1 <0>         0.1407
@<TRIPOS>BOND
     1    1    6 ar
     2    1    2 ar
     3    1   29 1
     4    2    3 ar
     5    2   30 1
     6    3    4 ar
     7    3   31 1
     8    4    5 ar
     9    4    7 1
    10    5    6 ar
    11    5   32 1
    12    6   33 1
    13    7    8 1
    14    7   34 1
    15    7   35 1
    16    8    9 2
    17    8   10 am
    18   10   11 1
    19   10   36 1
    20   11   15 1
    21   11   12 2
    22   12   19 1
    23   12   13 1
    24   13   14 2
    25   13   17 1
    26   14   15 1
    27   15   16 1
    28   17   18 1
    29   17   37 1
    30   17   38 1
    31   18   19 1
    32   18   20 am
    33   19   39 1
    34   19   40 1
    35   20   21 2
    36   20   22 am
    37   22   23 1
    38   22   41 1
    39   23   28 ar
    40   23   24 ar
    41   24   25 ar
    42   24   42 1
    43   25   26 ar
    44   25   43 1
    45   26   27 ar
    46   26   44 1
    47   27   28 ar
    48   27   45 1
    49   28   46 1
@<TRIPOS>MOLECULE
CHEMBL203707
   46    49     0     0     0
SMALL
USER_CHARGES

@<TRIPOS>ATOM
      1 C1          0.0038    1.4157    0.0108 C.ar      1 <0>        -0.1168
      2 C2          1.1952    2.1165   -0.0028 C.ar      1 <0>        -0.1190
      3 C3          2.3978    1.4350   -0.0180 C.ar      1 <0>        -0.1035
      4 C4          2.4090    0.0527   -0.0192 C.ar      1 <0>        -0.0739
      5 C5          1.2175   -0.6481   -0.0046 C.ar      1 <0>        -0.1035
      6 C6          0.0149    0.0334    0.0091 C.ar      1 <0>        -0.1190
      7 C7          3.7200   -0.6902   -0.0367 C.3       1 <0>        -0.0966
      8 C8          4.1755   -0.9389    1.3781 C.2       1 <0>         0.5067
      9 O1          3.5018   -0.5510    2.3091 O.2       1 <0>        -0.4763
     10 N1          5.3314   -1.5923    1.6089 N.am      1 <0>        -0.6426
     11 C9          5.7550   -1.8236    2.9248 C.2       1 <0>         0.3392
     12 C10         6.9363   -2.4838    3.3086 C.2       1 <0>        -0.2812
     13 C11         6.9812   -2.5018    4.6570 C.2       1 <0>         0.0716
     14 N2          5.8733   -1.8781    5.1176 N.pl3     1 <0>        -0.4418
     15 N3          5.1222   -1.4572    4.0135 N.2       1 <0>        -0.2490
     16 H1          5.6410   -1.7434    6.0497 H         1 <0>         0.4458
     17 C12         8.2380   -3.2035    5.1060 C.3       1 <0>         0.1782
     18 N4          8.9661   -3.6179    3.9012 N.am      1 <0>        -0.6274
     19 C13         8.1600   -3.1724    2.7588 C.3       1 <0>         0.2115
     20 C14        10.1412   -4.2761    3.8534 C.2       1 <0>         0.7360
     21 O2         10.6364   -4.5589    2.7795 O.2       1 <0>        -0.5567
     22 N5         10.7674   -4.6209    4.9960 N.am      1 <0>        -0.6822
     23 C15        11.9370   -5.3880    4.9489 C.ar      1 <0>         0.1576
     24 C16        12.1912   -6.3303    5.9367 C.ar      1 <0>        -0.1453
     25 C17        13.3462   -7.0861    5.8871 C.ar      1 <0>        -0.1015
     26 C18        14.2488   -6.9053    4.8553 C.ar      1 <0>        -0.1338
     27 C19        13.9987   -5.9674    3.8704 C.ar      1 <0>        -0.1015
     28 C20        12.8429   -5.2124    3.9111 C.ar      1 <0>        -0.1189
     29 H2         -0.9357    1.9481    0.0272 H         1 <0>         0.1221
     30 H3          1.1865    3.1965   -0.0019 H         1 <0>         0.1227
     31 H4          3.3287    1.9826   -0.0294 H         1 <0>         0.1200
     32 H5          1.2262   -1.7281   -0.0059 H         1 <0>         0.1200
     33 H6         -0.9159   -0.5141    0.0201 H         1 <0>         0.1227
     34 H7          3.5907   -1.6433   -0.5496 H         1 <0>         0.1093
     35 H8          4.4681   -0.0947   -0.5599 H         1 <0>         0.1093
     36 H9          5.8702   -1.9025    0.8643 H         1 <0>         0.4232
     37 H10         8.8527   -2.5217    5.6937 H         1 <0>         0.0923
     38 H11         7.9802   -4.0789    5.7021 H         1 <0>         0.0926
     39 H12         7.8624   -4.0319    2.1582 H         1 <0>         0.0802
     40 H13         8.7349   -2.4747    2.1498 H         1 <0>         0.0803
     41 H14        10.4075   -4.3374    5.8509 H         1 <0>         0.4070
     42 H15        11.4868   -6.4718    6.7430 H         1 <0>         0.1245
     43 H16        13.5447   -7.8189    6.6552 H         1 <0>         0.1267
     44 H17        15.1512   -7.4975    4.8187 H         1 <0>         0.1237
     45 H18        14.7058   -5.8282    3.0660 H         1 <0>         0.1263
     46 H19        12.6458   -4.4835    3.1390 H         1 <0>         0.1408
@<TRIPOS>BOND
     1    1    6 ar
     2    1    2 ar
     3    1   29 1
     4    2    3 ar
     5    2   30 1
     6    3    4 ar
     7    3   31 1
     8    4    5 ar
     9    4    7 1
    10    5    6 ar
    11    5   32 1
    12    6   33 1
    13    7    8 1
    14    7   34 1
    15    7   35 1
    16    8    9 2
    17    8   10 am
    18   10   36 1
    19   10   11 1
    20   11   15 2
    21   11   12 1
    22   12   19 1
    23   12   13 2
    24   13   17 1
    25   13   14 1
    26   14   15 1
    27   14   16 1
    28   17   18 1
    29   17   37 1
    30   17   38 1
    31   18   19 1
    32   18   20 am
    33   19   39 1
    34   19   40 1
    35   20   21 2
    36   20   22 am
    37   22   23 1
    38   22   41 1
    39   23   28 ar
    40   23   24 ar
    41   24   25 ar
    42   24   42 1
    43   25   26 ar
    44   25   43 1
    45   26   27 ar
    46   26   44 1
    47   27   28 ar
    48   27   45 1
    49   28   46 1
@<TRIPOS>MOLECULE
CHEMBL378584
   36    38     0     0     0
SMALL
USER_CHARGES

@<TRIPOS>ATOM
      1 C1         -0.0167    1.3781    0.0096 C.ar      1 <0>        -0.1141
      2 C2          1.1709    2.0855    0.0021 C.ar      1 <0>        -0.1183
      3 C3          2.3773    1.4107   -0.0130 C.ar      1 <0>        -0.1033
      4 C4          2.3960    0.0285   -0.0201 C.ar      1 <0>        -0.0791
      5 C5          1.2084   -0.6789   -0.0117 C.ar      1 <0>        -0.1032
      6 C6          0.0021   -0.0041    0.0020 C.ar      1 <0>        -0.1183
      7 C7          3.7112   -0.7071   -0.0376 C.3       1 <0>        -0.0956
      8 C8          4.1644   -0.9594    1.3773 C.2       1 <0>         0.5206
      9 O1          3.4863   -0.5793    2.3083 O.2       1 <0>        -0.5154
     10 N1          5.3234   -1.6075    1.6082 N.am      1 <0>        -0.6464
     11 C9          5.7429   -1.8410    2.9177 C.2       1 <0>         0.3607
     12 C10         6.8879   -2.4748    3.2952 C.2       1 <0>        -0.3129
     13 C11         6.9258   -2.4968    4.6906 C.2       1 <0>         0.0668
     14 N2          5.8486   -1.9010    5.1402 N.2       1 <0>        -0.2487
     15 N3          5.0897   -1.4741    4.0435 N.pl3     1 <0>        -0.4531
     16 H1          4.2440   -1.0009    4.0842 H         1 <0>         0.4560
     17 C12         8.1887   -3.1959    5.1265 C.3       1 <0>         0.1941
     18 N4          8.9170   -3.5981    3.9193 N.am      1 <0>        -0.6312
     19 C13         8.1233   -3.1581    2.7677 C.3       1 <0>         0.2211
     20 C14        10.0957   -4.2503    3.8762 C.2       1 <0>         0.7367
     21 O2         10.5984   -4.5272    2.8043 O.2       1 <0>        -0.5826
     22 N5         10.7171   -4.5955    5.0213 N.am      1 <0>        -0.8615
     23 H2         -0.9591    1.9053    0.0259 H         1 <0>         0.1235
     24 H3          1.1563    3.1654    0.0076 H         1 <0>         0.1240
     25 H4          3.3051    1.9634   -0.0196 H         1 <0>         0.1206
     26 H5          1.2231   -1.7588   -0.0176 H         1 <0>         0.1206
     27 H6         -0.9258   -0.5567    0.0082 H         1 <0>         0.1240
     28 H7          3.5884   -1.6586   -0.5549 H         1 <0>         0.1149
     29 H8          4.4573   -0.1052   -0.5563 H         1 <0>         0.1150
     30 H9          5.8657   -1.9115    0.8637 H         1 <0>         0.4316
     31 H10         8.8017   -2.5161    5.7182 H         1 <0>         0.0921
     32 H11         7.9380   -4.0770    5.7171 H         1 <0>         0.0921
     33 H12         7.8394   -4.0201    2.1640 H         1 <0>         0.0754
     34 H13         8.7032   -2.4591    2.1650 H         1 <0>         0.0755
     35 H14        10.3160   -4.3746    5.8764 H         1 <0>         0.3987
     36 H15        11.5654   -5.0649    4.9902 H         1 <0>         0.4195
@<TRIPOS>BOND
     1    1    6 ar
     2    1    2 ar
     3    1   23 1
     4    2    3 ar
     5    2   24 1
     6    3    4 ar
     7    3   25 1
     8    4    5 ar
     9    4    7 1
    10    5    6 ar
    11    5   26 1
    12    6   27 1
    13    7    8 1
    14    7   28 1
    15    7   29 1
    16    8    9 2
    17    8   10 am
    18   10   11 1
    19   10   30 1
    20   11   15 1
    21   11   12 2
    22   12   19 1
    23   12   13 1
    24   13   14 2
    25   13   17 1
    26   14   15 1
    27   15   16 1
    28   17   18 1
    29   17   31 1
    30   17   32 1
    31   18   19 1
    32   18   20 am
    33   19   33 1
    34   19   34 1
    35   20   21 2
    36   20   22 am
    37   22   35 1
    38   22   36 1
@<TRIPOS>MOLECULE
CHEMBL378584
   36    38     0     0     0
SMALL
USER_CHARGES

@<TRIPOS>ATOM
      1 C1         -0.0167    1.3781    0.0096 C.ar      1 <0>        -0.1169
      2 C2          1.1709    2.0855    0.0021 C.ar      1 <0>        -0.1190
      3 C3          2.3773    1.4107   -0.0130 C.ar      1 <0>        -0.1036
      4 C4          2.3960    0.0285   -0.0201 C.ar      1 <0>        -0.0737
      5 C5          1.2084   -0.6789   -0.0117 C.ar      1 <0>        -0.1035
      6 C6          0.0021   -0.0041    0.0020 C.ar      1 <0>        -0.1190
      7 C7          3.7112   -0.7071   -0.0376 C.3       1 <0>        -0.0967
      8 C8          4.1644   -0.9594    1.3773 C.2       1 <0>         0.5066
      9 O1          3.4863   -0.5793    2.3083 O.2       1 <0>        -0.4766
     10 N1          5.3234   -1.6075    1.6082 N.am      1 <0>        -0.6426
     11 C9          5.7449   -1.8422    2.9242 C.2       1 <0>         0.3385
     12 C10         6.9289   -2.4976    3.3081 C.2       1 <0>        -0.2813
     13 C11         6.9705   -2.5211    4.6565 C.2       1 <0>         0.0705
     14 N2          5.8580   -1.9056    5.1171 N.pl3     1 <0>        -0.4426
     15 N3          5.1074   -1.4841    4.0128 N.2       1 <0>        -0.2501
     16 H1          5.6226   -1.7762    6.0491 H         1 <0>         0.4456
     17 C12         8.2299   -3.2179    5.1057 C.3       1 <0>         0.1812
     18 N4          8.9634   -3.6231    3.9010 N.am      1 <0>        -0.6311
     19 C13         8.1577   -3.1770    2.7585 C.3       1 <0>         0.2104
     20 C14        10.1422   -4.2746    3.8533 C.2       1 <0>         0.7371
     21 O2         10.6417   -4.5499    2.7795 O.2       1 <0>        -0.5783
     22 N5         10.7674   -4.6209    4.9960 N.am      1 <0>        -0.8614
     23 H2         -0.9591    1.9053    0.0259 H         1 <0>         0.1220
     24 H3          1.1563    3.1654    0.0076 H         1 <0>         0.1227
     25 H4          3.3051    1.9634   -0.0196 H         1 <0>         0.1200
     26 H5          1.2231   -1.7588   -0.0176 H         1 <0>         0.1200
     27 H6         -0.9258   -0.5567    0.0082 H         1 <0>         0.1227
     28 H7          3.5884   -1.6586   -0.5549 H         1 <0>         0.1093
     29 H8          4.4573   -0.1052   -0.5563 H         1 <0>         0.1093
     30 H9          5.8657   -1.9115    0.8637 H         1 <0>         0.4232
     31 H10         8.8394   -2.5353    5.6979 H         1 <0>         0.0911
     32 H11         7.9755   -4.0973    5.6973 H         1 <0>         0.0911
     33 H12         7.8664   -4.0355    2.1534 H         1 <0>         0.0787
     34 H13         8.7303   -2.4736    2.1540 H         1 <0>         0.0787
     35 H14        10.3690   -4.4012    5.8526 H         1 <0>         0.3976
     36 H15        11.6159   -5.0898    4.9617 H         1 <0>         0.4203
@<TRIPOS>BOND
     1    1    6 ar
     2    1    2 ar
     3    1   23 1
     4    2    3 ar
     5    2   24 1
     6    3    4 ar
     7    3   25 1
     8    4    5 ar
     9    4    7 1
    10    5    6 ar
    11    5   26 1
    12    6   27 1
    13    7    8 1
    14    7   28 1
    15    7   29 1
    16    8    9 2
    17    8   10 am
    18   10   30 1
    19   10   11 1
    20   11   15 2
    21   11   12 1
    22   12   19 1
    23   12   13 2
    24   13   17 1
    25   13   14 1
    26   14   15 1
    27   14   16 1
    28   17   18 1
    29   17   31 1
    30   17   32 1
    31   18   19 1
    32   18   20 am
    33   19   33 1
    34   19   34 1
    35   20   21 2
    36   20   22 am
    37   22   35 1
    38   22   36 1
@<TRIPOS>MOLECULE
CHEMBL497854
   40    43     0     0     0
SMALL
USER_CHARGES

@<TRIPOS>ATOM
      1 C1         -0.0184    1.5028    0.0103 C.3       1 <0>        -0.0888
      2 C2          0.0021   -0.0041    0.0020 C.2       1 <0>         0.1019
      3 C3          0.0080   -0.8237   -1.1409 C.2       1 <0>        -0.2527
      4 C4          0.0273   -2.1079   -0.7353 C.2       1 <0>         0.0469
      5 O1          0.0335   -2.1190    0.6064 O.3       1 <0>        -0.0713
      6 N1          0.0230   -0.7748    1.0524 N.2       1 <0>        -0.3089
      7 C5          0.0393   -3.3197   -1.6311 C.3       1 <0>         0.2105
      8 N2          1.4242   -3.6937   -1.9282 N.pl3     1 <0>        -0.6898
      9 C6          1.6880   -4.7848   -2.7385 C.ar      1 <0>         0.6140
     10 N3          0.6754   -5.4756   -3.2410 N.ar      1 <0>        -0.5875
     11 C7          0.8875   -6.5256   -4.0210 C.ar      1 <0>         0.2610
     12 C8          2.1854   -6.9008   -4.3112 C.ar      1 <0>        -0.3100
     13 C9          3.2324   -6.1529   -3.7668 C.ar      1 <0>         0.5106
     14 N4          2.9461   -5.1082   -2.9963 N.ar      1 <0>        -0.5933
     15 N5          4.5506   -6.4925   -4.0303 N.pl3     1 <0>        -0.6041
     16 C10         5.5923   -5.7356   -3.4792 C.2       1 <0>         0.3080
     17 C11         5.4462   -4.6172   -2.6425 C.2       1 <0>        -0.2550
     18 C12         6.6832   -4.1714   -2.3262 C.2       1 <0>         0.1273
     19 N6          7.5810   -4.9733   -2.9366 N.pl3     1 <0>        -0.4666
     20 H1          8.5461   -4.8896   -2.8869 H         1 <0>         0.4389
     21 N7          6.8755   -5.9509   -3.6497 N.2       1 <0>        -0.3187
     22 C13         7.0025   -2.9888   -1.4483 C.3       1 <0>        -0.0969
     23 C14         8.2487   -2.1703   -1.7916 C.3       1 <0>        -0.1705
     24 C15         8.2467   -3.0819   -0.5628 C.3       1 <0>        -0.1703
     25 Br1         2.5363   -8.3925   -5.4191 Br        1 <0>        -0.0222
     26 H2          1.0042    1.8801    0.0026 H         1 <0>         0.0915
     27 H3         -0.5455    1.8639   -0.8728 H         1 <0>         0.0900
     28 H4         -0.5286    1.8543    0.9071 H         1 <0>         0.0839
     29 H5         -0.0015   -0.4827   -2.1656 H         1 <0>         0.1640
     30 H6         -0.4610   -4.1477   -1.1290 H         1 <0>         0.0994
     31 H7         -0.4822   -3.0898   -2.5603 H         1 <0>         0.1100
     32 H8          2.1564   -3.1770   -1.5570 H         1 <0>         0.4193
     33 H9          0.0550   -7.0823   -4.4253 H         1 <0>         0.1812
     34 H10         4.7514   -7.2542   -4.5963 H         1 <0>         0.4300
     35 H11         4.5119   -4.1888   -2.3111 H         1 <0>         0.1809
     36 H12         6.1410   -2.4521   -1.0511 H         1 <0>         0.1324
     37 H13         8.8376   -2.4871   -2.6524 H         1 <0>         0.0948
     38 H14         8.2072   -1.0946   -1.6203 H         1 <0>         0.1074
     39 H15         8.2040   -2.6059    0.4169 H         1 <0>         0.1076
     40 H16         8.8344   -3.9984   -0.6152 H         1 <0>         0.0950
@<TRIPOS>BOND
     1    1    2 1
     2    1   26 1
     3    1   27 1
     4    1   28 1
     5    2    6 2
     6    2    3 1
     7    3    4 2
     8    3   29 1
     9    4    5 1
    10    4    7 1
    11    5    6 1
    12    7    8 1
    13    7   30 1
    14    7   31 1
    15    8    9 1
    16    8   32 1
    17    9   14 ar
    18    9   10 ar
    19   10   11 ar
    20   11   12 ar
    21   11   33 1
    22   12   13 ar
    23   12   25 1
    24   13   14 ar
    25   13   15 1
    26   15   16 1
    27   15   34 1
    28   16   21 2
    29   16   17 1
    30   17   18 2
    31   17   35 1
    32   18   19 1
    33   18   22 1
    34   19   20 1
    35   19   21 1
    36   22   24 1
    37   22   23 1
    38   22   36 1
    39   23   24 1
    40   23   37 1
    41   23   38 1
    42   24   39 1
    43   24   40 1
@<TRIPOS>MOLECULE
CHEMBL497854
   41    44     0     0     0
SMALL
USER_CHARGES

@<TRIPOS>ATOM
      1 C1         -0.0184    1.5028    0.0103 C.3       1 <0>        -0.0953
      2 C2          0.0021   -0.0041    0.0020 C.2       1 <0>         0.1035
      3 C3          0.0080   -0.8237   -1.1409 C.2       1 <0>        -0.2207
      4 C4          0.0273   -2.1079   -0.7353 C.2       1 <0>         0.0149
      5 O1          0.0335   -2.1190    0.6064 O.3       1 <0>        -0.0665
      6 N1          0.0230   -0.7748    1.0524 N.2       1 <0>        -0.2832
      7 C5          0.0393   -3.3197   -1.6311 C.3       1 <0>         0.1705
      8 N2          1.4242   -3.6937   -1.9282 N.pl3     1 <0>        -0.6632
      9 C6          1.6880   -4.7848   -2.7385 C.ar      1 <0>         0.6649
     10 N3          0.6753   -5.4757   -3.2410 N.ar      1 <0>        -0.5655
     11 C7          0.8875   -6.5261   -4.0203 C.ar      1 <0>         0.2608
     12 C8          2.1855   -6.9015   -4.3101 C.ar      1 <0>        -0.2601
     13 C9          3.2324   -6.1534   -3.7662 C.ar      1 <0>         0.5477
     14 N4          2.9460   -5.1082   -2.9963 N.ar      1 <0>        -0.5415
     15 N5          4.5509   -6.4932   -4.0293 N.pl3     1 <0>        -0.5693
     16 C10         5.5871   -5.7400   -3.4816 C.2       1 <0>         0.2696
     17 C11         5.4522   -4.6512   -2.6751 C.2       1 <0>        -0.2364
     18 C12         6.7333   -4.1975   -2.3500 C.2       1 <0>         0.1227
     19 N6          7.6084   -4.9759   -2.9329 N.2       1 <0>        -0.2418
     20 H1          7.3158   -6.6729   -4.1733 H         1 <0>         0.4449
     21 N7          6.9165   -5.9609   -3.6494 N.pl3     1 <0>        -0.4773
     22 C13         7.0528   -3.0117   -1.4765 C.3       1 <0>        -0.0908
     23 C14         5.9277   -2.0113   -1.2043 C.3       1 <0>        -0.1626
     24 C15         7.0784   -1.6328   -2.1389 C.3       1 <0>        -0.1583
     25 Br1         2.5364   -8.3940   -5.4170 Br        1 <0>         0.0596
     26 H2          1.0042    1.8801    0.0026 H         1 <0>         0.0973
     27 H3         -0.5455    1.8639   -0.8728 H         1 <0>         0.0941
     28 H4         -0.5286    1.8543    0.9071 H         1 <0>         0.0896
     29 H5         -0.0015   -0.4827   -2.1656 H         1 <0>         0.1696
     30 H6         -0.4610   -4.1477   -1.1290 H         1 <0>         0.1175
     31 H7         -0.4822   -3.0898   -2.5603 H         1 <0>         0.1252
     32 H8          2.1564   -3.1770   -1.5570 H         1 <0>         0.4478
     33 H9          0.0550   -7.0831   -4.4243 H         1 <0>         0.2306
     34 H10         4.7517   -7.2554   -4.5948 H         1 <0>         0.4399
     35 H11         4.5206   -4.2152   -2.3457 H         1 <0>         0.1813
     36 H12         7.7664   -3.1978   -0.6738 H         1 <0>         0.1284
     37 H13         4.9564   -2.2107   -1.6570 H         1 <0>         0.0930
     38 H14         5.9008   -1.5390   -0.2223 H         1 <0>         0.1060
     39 H15         7.8086   -0.9116   -1.7718 H         1 <0>         0.1071
     40 H16         6.8642   -1.5833   -3.2065 H         1 <0>         0.0970
     41 H17        -0.2343   -5.2090   -3.0352 H         1 <0>         0.4489
@<TRIPOS>BOND
     1    1    2 1
     2    1   26 1
     3    1   27 1
     4    1   28 1
     5    2    6 2
     6    2    3 1
     7    3    4 2
     8    3   29 1
     9    4    5 1
    10    4    7 1
    11    5    6 1
    12    7    8 1
    13    7   30 1
    14    7   31 1
    15    8    9 1
    16    8   32 1
    17    9   14 ar
    18    9   10 ar
    19   10   11 ar
    20   10   41 1
    21   11   12 ar
    22   11   33 1
    23   12   13 ar
    24   12   25 1
    25   13   14 ar
    26   13   15 1
    27   15   16 1
    28   15   34 1
    29   16   17 2
    30   16   21 1
    31   17   35 1
    32   17   18 1
    33   18   22 1
    34   18   19 2
    35   19   21 1
    36   20   21 1
    37   22   24 1
    38   22   23 1
    39   22   36 1
    40   23   24 1
    41   23   37 1
    42   23   38 1
    43   24   39 1
    44   24   40 1
@<TRIPOS>MOLECULE
CHEMBL497854
   41    44     0     0     0
SMALL
USER_CHARGES

@<TRIPOS>ATOM
      1 C1         -0.0184    1.5028    0.0103 C.3       1 <0>        -0.0950
      2 C2          0.0021   -0.0041    0.0020 C.2       1 <0>         0.1032
      3 C3          0.0080   -0.8237   -1.1409 C.2       1 <0>        -0.2224
      4 C4          0.0273   -2.1079   -0.7353 C.2       1 <0>         0.0168
      5 O1          0.0335   -2.1190    0.6064 O.3       1 <0>        -0.0668
      6 N1          0.0230   -0.7748    1.0524 N.2       1 <0>        -0.2847
      7 C5          0.0393   -3.3197   -1.6311 C.3       1 <0>         0.1713
      8 N2          1.4242   -3.6937   -1.9282 N.pl3     1 <0>        -0.6661
      9 C6          1.6880   -4.7848   -2.7385 C.ar      1 <0>         0.6641
     10 N3          0.6754   -5.4756   -3.2410 N.ar      1 <0>        -0.5669
     11 C7          0.8875   -6.5256   -4.0210 C.ar      1 <0>         0.2584
     12 C8          2.1854   -6.9008   -4.3112 C.ar      1 <0>        -0.2596
     13 C9          3.2324   -6.1529   -3.7668 C.ar      1 <0>         0.5506
     14 N4          2.9461   -5.1082   -2.9963 N.ar      1 <0>        -0.5423
     15 N5          4.5506   -6.4925   -4.0303 N.pl3     1 <0>        -0.5517
     16 C10         5.5923   -5.7356   -3.4792 C.2       1 <0>         0.2697
     17 C11         5.4462   -4.6172   -2.6425 C.2       1 <0>        -0.2569
     18 C12         6.6832   -4.1714   -2.3262 C.2       1 <0>         0.1477
     19 N6          7.5810   -4.9733   -2.9366 N.pl3     1 <0>        -0.4467
     20 H1          8.5461   -4.8896   -2.8869 H         1 <0>         0.4489
     21 N7          6.8755   -5.9509   -3.6497 N.2       1 <0>        -0.2848
     22 C13         7.0025   -2.9888   -1.4483 C.3       1 <0>        -0.1095
     23 C14         8.2487   -2.1703   -1.7916 C.3       1 <0>        -0.1661
     24 C15         8.2467   -3.0819   -0.5628 C.3       1 <0>        -0.1659
     25 Br1         2.5363   -8.3925   -5.4191 Br        1 <0>         0.0601
     26 H2          1.0042    1.8801    0.0026 H         1 <0>         0.0966
     27 H3         -0.5455    1.8639   -0.8728 H         1 <0>         0.0942
     28 H4         -0.5286    1.8543    0.9071 H         1 <0>         0.0896
     29 H5         -0.0015   -0.4827   -2.1656 H         1 <0>         0.1696
     30 H6         -0.4610   -4.1477   -1.1290 H         1 <0>         0.1167
     31 H7         -0.4822   -3.0898   -2.5603 H         1 <0>         0.1245
     32 H8          2.1564   -3.1770   -1.5570 H         1 <0>         0.4469
     33 H9          0.0550   -7.0823   -4.4253 H         1 <0>         0.2296
     34 H10         4.7514   -7.2542   -4.5963 H         1 <0>         0.4441
     35 H11         4.5119   -4.1888   -2.3111 H         1 <0>         0.1791
     36 H12         6.1410   -2.4521   -1.0511 H         1 <0>         0.1357
     37 H13         8.8376   -2.4871   -2.6524 H         1 <0>         0.0975
     38 H14         8.2072   -1.0946   -1.6203 H         1 <0>         0.1125
     39 H15         8.2040   -2.6059    0.4169 H         1 <0>         0.1126
     40 H16         8.8344   -3.9984   -0.6152 H         1 <0>         0.0977
     41 H17        -0.2343   -5.2093   -3.0347 H         1 <0>         0.4478
@<TRIPOS>BOND
     1    1    2 1
     2    1   26 1
     3    1   27 1
     4    1   28 1
     5    2    6 2
     6    2    3 1
     7    3    4 2
     8    3   29 1
     9    4    5 1
    10    4    7 1
    11    5    6 1
    12    7    8 1
    13    7   30 1
    14    7   31 1
    15    8    9 1
    16    8   32 1
    17    9   14 ar
    18    9   10 ar
    19   10   11 ar
    20   10   41 1
    21   11   12 ar
    22   11   33 1
    23   12   13 ar
    24   12   25 1
    25   13   14 ar
    26   13   15 1
    27   15   16 1
    28   15   34 1
    29   16   21 2
    30   16   17 1
    31   17   18 2
    32   17   35 1
    33   18   19 1
    34   18   22 1
    35   19   20 1
    36   19   21 1
    37   22   24 1
    38   22   23 1
    39   22   36 1
    40   23   24 1
    41   23   37 1
    42   23   38 1
    43   24   39 1
    44   24   40 1
@<TRIPOS>MOLECULE
CHEMBL497854
   40    43     0     0     0
SMALL
USER_CHARGES

@<TRIPOS>ATOM
      1 C1         -0.0184    1.5028    0.0103 C.3       1 <0>        -0.0890
      2 C2          0.0021   -0.0041    0.0020 C.2       1 <0>         0.1022
      3 C3          0.0080   -0.8237   -1.1409 C.2       1 <0>        -0.2513
      4 C4          0.0273   -2.1079   -0.7353 C.2       1 <0>         0.0453
      5 O1          0.0335   -2.1190    0.6064 O.3       1 <0>        -0.0710
      6 N1          0.0230   -0.7748    1.0524 N.2       1 <0>        -0.3076
      7 C5          0.0393   -3.3197   -1.6311 C.3       1 <0>         0.2100
      8 N2          1.4242   -3.6937   -1.9282 N.pl3     1 <0>        -0.6878
      9 C6          1.6880   -4.7848   -2.7385 C.ar      1 <0>         0.6152
     10 N3          0.6753   -5.4757   -3.2410 N.ar      1 <0>        -0.5845
     11 C7          0.8875   -6.5259   -4.0206 C.ar      1 <0>         0.2620
     12 C8          2.1855   -6.9013   -4.3105 C.ar      1 <0>        -0.3093
     13 C9          3.2324   -6.1534   -3.7662 C.ar      1 <0>         0.5083
     14 N4          2.9460   -5.1082   -2.9963 N.ar      1 <0>        -0.5895
     15 N5          4.5509   -6.4933   -4.0293 N.pl3     1 <0>        -0.6202
     16 C10         5.5871   -5.7403   -3.4811 C.2       1 <0>         0.3099
     17 C11         5.4522   -4.6518   -2.6743 C.2       1 <0>        -0.2646
     18 C12         6.7333   -4.1983   -2.3489 C.2       1 <0>         0.1191
     19 N6          7.6084   -4.9766   -2.9320 N.2       1 <0>        -0.2762
     20 H1          7.3158   -6.6731   -4.1730 H         1 <0>         0.4367
     21 N7          6.9165   -5.9612   -3.6489 N.pl3     1 <0>        -0.4934
     22 C13         7.0528   -3.0129   -1.4750 C.3       1 <0>        -0.0828
     23 C14         5.9278   -2.0124   -1.2025 C.3       1 <0>        -0.1630
     24 C15         7.0786   -1.6337   -2.1369 C.3       1 <0>        -0.1629
     25 Br1         2.5364   -8.3934   -5.4179 Br        1 <0>        -0.0227
     26 H2          1.0042    1.8801    0.0026 H         1 <0>         0.0921
     27 H3         -0.5455    1.8639   -0.8728 H         1 <0>         0.0899
     28 H4         -0.5286    1.8543    0.9071 H         1 <0>         0.0839
     29 H5         -0.0015   -0.4827   -2.1656 H         1 <0>         0.1639
     30 H6         -0.4610   -4.1477   -1.1290 H         1 <0>         0.0999
     31 H7         -0.4822   -3.0898   -2.5603 H         1 <0>         0.1104
     32 H8          2.1564   -3.1770   -1.5570 H         1 <0>         0.4204
     33 H9          0.0550   -7.0826   -4.4249 H         1 <0>         0.1823
     34 H10         4.7517   -7.2552   -4.5950 H         1 <0>         0.4254
     35 H11         4.5206   -4.2159   -2.3449 H         1 <0>         0.1826
     36 H12         7.7663   -3.1993   -0.6723 H         1 <0>         0.1212
     37 H13         4.9565   -2.2116   -1.6554 H         1 <0>         0.0979
     38 H14         5.9008   -1.5405   -0.2204 H         1 <0>         0.1013
     39 H15         7.8088   -0.9127   -1.7694 H         1 <0>         0.1011
     40 H16         6.8645   -1.5838   -3.2045 H         1 <0>         0.0951
@<TRIPOS>BOND
     1    1    2 1
     2    1   26 1
     3    1   27 1
     4    1   28 1
     5    2    6 2
     6    2    3 1
     7    3    4 2
     8    3   29 1
     9    4    5 1
    10    4    7 1
    11    5    6 1
    12    7    8 1
    13    7   30 1
    14    7   31 1
    15    8    9 1
    16    8   32 1
    17    9   14 ar
    18    9   10 ar
    19   10   11 ar
    20   11   12 ar
    21   11   33 1
    22   12   13 ar
    23   12   25 1
    24   13   14 ar
    25   13   15 1
    26   15   16 1
    27   15   34 1
    28   16   17 2
    29   16   21 1
    30   17   35 1
    31   17   18 1
    32   18   22 1
    33   18   19 2
    34   19   21 1
    35   20   21 1
    36   22   24 1
    37   22   23 1
    38   22   36 1
    39   23   24 1
    40   23   37 1
    41   23   38 1
    42   24   39 1
    43   24   40 1
@<TRIPOS>MOLECULE
CHEMBL345525
   57    61     0     0     0
SMALL
USER_CHARGES

@<TRIPOS>ATOM
      1 C1         -1.2811    1.0922   -0.8714 C.3       1 <0>        -0.0465
      2 N1         -0.7150   -0.2100   -0.4951 N.4       1 <0>        -0.3899
      3 C2         -1.7488   -1.2464   -0.6163 C.3       1 <0>        -0.0002
      4 C3         -1.1545   -2.6061   -0.2424 C.3       1 <0>         0.0059
      5 N2         -0.6480   -2.5538    1.1363 N.3       1 <0>        -0.3089
      6 C4          0.3704   -1.5037    1.2788 C.3       1 <0>         0.0047
      7 C5         -0.2365   -0.1531    0.8924 C.3       1 <0>        -0.0009
      8 N3         -0.1565   -3.7681    1.5236 N.am      1 <0>        -0.5824
      9 C6         -0.6930   -4.4053    2.5831 C.2       1 <0>         0.7305
     10 O1         -0.2556   -5.4860    2.9279 O.2       1 <0>        -0.5454
     11 N4         -1.7144   -3.8446    3.2605 N.am      1 <0>        -0.6587
     12 C7         -2.3454   -4.5522    4.2797 C.ar      1 <0>         0.2341
     13 C8         -2.3191   -5.9434    4.2833 C.ar      1 <0>        -0.1334
     14 C9         -2.9439   -6.6474    5.2916 C.ar      1 <0>        -0.0575
     15 C10        -3.6035   -5.9802    6.3112 C.ar      1 <0>        -0.1048
     16 C11        -3.6425   -4.5922    6.3286 C.ar      1 <0>         0.0453
     17 C12        -3.0038   -3.8660    5.3078 C.ar      1 <0>        -0.1949
     18 C13        -3.1868   -2.4228    5.5624 C.2       1 <0>         0.5011
     19 O2         -2.7665   -1.5133    4.8722 O.2       1 <0>        -0.4588
     20 C14        -3.9680   -2.2830    6.7988 C.2       1 <0>        -0.3386
     21 C15        -4.2636   -3.6357    7.2783 C.2       1 <0>         0.1249
     22 N5         -4.9636   -3.5150    8.3790 N.2       1 <0>        -0.2284
     23 N6         -5.1671   -2.1598    8.6570 N.pl3     1 <0>        -0.4631
     24 H1         -5.6561   -1.8106    9.4185 H         1 <0>         0.4505
     25 C16        -4.5511   -1.4060    7.7031 C.2       1 <0>         0.2468
     26 C17        -4.5286    0.0674    7.6319 C.ar      1 <0>        -0.1035
     27 C18        -3.3401    0.7361    7.3259 C.ar      1 <0>        -0.0260
     28 C19        -3.3236    2.1120    7.2605 C.ar      1 <0>        -0.1530
     29 C20        -4.4861    2.8349    7.4986 C.ar      1 <0>         0.1535
     30 C21        -5.6698    2.1741    7.8036 C.ar      1 <0>        -0.2093
     31 C22        -5.6969    0.7982    7.8646 C.ar      1 <0>        -0.0495
     32 O3         -4.4652    4.1911    7.4335 O.3       1 <0>        -0.3122
     33 C23        -5.6954    4.8718    7.6892 C.3       1 <0>         0.0227
     34 H2         -0.5137    1.8612   -0.7829 H         1 <0>         0.1263
     35 H3         -1.6362    1.0502   -1.9011 H         1 <0>         0.1260
     36 H4         -2.1134    1.3315   -0.2096 H         1 <0>         0.1256
     37 H5         -2.5760   -1.0146    0.0547 H         1 <0>         0.1433
     38 H6         -2.1122   -1.2788   -1.6434 H         1 <0>         0.1442
     39 H7         -1.9253   -3.3731   -0.3179 H         1 <0>         0.1327
     40 H8         -0.3361   -2.8445   -0.9218 H         1 <0>         0.0745
     41 H9          0.7120   -1.4663    2.3132 H         1 <0>         0.1329
     42 H10         1.2139   -1.7239    0.6245 H         1 <0>         0.0740
     43 H11         0.5212    0.6252    0.9838 H         1 <0>         0.1443
     44 H12        -1.0714    0.0731    1.5556 H         1 <0>         0.1455
     45 H13         0.5786   -4.1717    1.0361 H         1 <0>         0.4119
     46 H14        -2.0098   -2.9479    3.0377 H         1 <0>         0.4236
     47 H15        -1.8080   -6.4739    3.4935 H         1 <0>         0.1598
     48 H16        -2.9191   -7.7271    5.2861 H         1 <0>         0.1453
     49 H17        -4.0895   -6.5418    7.0953 H         1 <0>         0.1412
     50 H18        -2.4359    0.1751    7.1414 H         1 <0>         0.1365
     51 H19        -2.4056    2.6296    7.0241 H         1 <0>         0.1395
     52 H20        -6.5710    2.7399    7.9883 H         1 <0>         0.1383
     53 H21        -6.6185    0.2853    8.0969 H         1 <0>         0.1303
     54 H22        -6.4437    4.5552    6.9627 H         1 <0>         0.0594
     55 H23        -6.0411    4.6322    8.6948 H         1 <0>         0.0607
     56 H24        -5.5397    5.9474    7.6053 H         1 <0>         0.1061
     57 H25         0.0558   -0.4312   -1.1076 H         1 <0>         0.4238
@<TRIPOS>BOND
     1    1    2 1
     2    1   34 1
     3    1   35 1
     4    1   36 1
     5    2    7 1
     6    2    3 1
     7    2   57 1
     8    3    4 1
     9    3   37 1
    10    3   38 1
    11    4    5 1
    12    4   39 1
    13    4   40 1
    14    5    6 1
    15    5    8 1
    16    6    7 1
    17    6   41 1
    18    6   42 1
    19    7   43 1
    20    7   44 1
    21    8    9 am
    22    8   45 1
    23    9   10 2
    24    9   11 am
    25   11   12 1
    26   11   46 1
    27   12   17 ar
    28   12   13 ar
    29   13   14 ar
    30   13   47 1
    31   14   15 ar
    32   14   48 1
    33   15   16 ar
    34   15   49 1
    35   16   21 1
    36   16   17 ar
    37   17   18 1
    38   18   19 2
    39   18   20 1
    40   20   25 2
    41   20   21 1
    42   21   22 2
    43   22   23 1
    44   23   24 1
    45   23   25 1
    46   25   26 1
    47   26   31 ar
    48   26   27 ar
    49   27   28 ar
    50   27   50 1
    51   28   29 ar
    52   28   51 1
    53   29   30 ar
    54   29   32 1
    55   30   31 ar
    56   30   52 1
    57   31   53 1
    58   32   33 1
    59   33   54 1
    60   33   55 1
    61   33   56 1
@<TRIPOS>MOLECULE
CHEMBL345525
   56    60     0     0     0
SMALL
USER_CHARGES

@<TRIPOS>ATOM
      1 C1          1.3807    1.1113    0.5494 C.3       1 <0>         0.0242
      2 N1          0.8037   -0.2173    0.3043 N.3       1 <0>        -0.5470
      3 C2         -0.6476   -0.2119    0.5349 C.3       1 <0>         0.0574
      4 C3         -1.2209   -1.5892    0.1930 C.3       1 <0>         0.0404
      5 N2         -0.5628   -2.6100    1.0204 N.3       1 <0>        -0.3110
      6 C4          0.8885   -2.6153    0.7897 C.3       1 <0>         0.0365
      7 C5          1.4618   -1.2381    1.1317 C.3       1 <0>         0.0578
      8 N3         -1.0993   -3.8453    0.7924 N.am      1 <0>        -0.5814
      9 C6         -1.6729   -4.5279    1.8031 C.2       1 <0>         0.7352
     10 O1         -2.1504   -5.6274    1.6002 O.2       1 <0>        -0.5702
     11 N4         -1.7172   -3.9916    3.0388 N.am      1 <0>        -0.6643
     12 C7         -2.3906   -4.6530    4.0602 C.ar      1 <0>         0.2457
     13 C8         -2.3917   -6.0494    4.1113 C.ar      1 <0>        -0.1165
     14 C9         -3.0577   -6.7041    5.1225 C.ar      1 <0>        -0.0677
     15 C10        -3.7352   -5.9882    6.1020 C.ar      1 <0>        -0.1090
     16 C11        -3.7466   -4.6020    6.0699 C.ar      1 <0>         0.0080
     17 C12        -3.0629   -3.9261    5.0415 C.ar      1 <0>        -0.1900
     18 C13        -3.2419   -2.4742    5.2676 C.2       1 <0>         0.4838
     19 O2         -2.7977   -1.5756    4.5806 O.2       1 <0>        -0.4274
     20 C14        -4.0624   -2.3247    6.4865 C.2       1 <0>        -0.3131
     21 C15        -4.3709   -3.5934    6.9594 C.2       1 <0>         0.1581
     22 N5         -5.1239   -3.4358    8.0695 N.pl3     1 <0>        -0.4251
     23 N6         -5.3081   -2.0670    8.2932 N.2       1 <0>        -0.2719
     24 H1         -5.4780   -4.1520    8.6196 H         1 <0>         0.4468
     25 C16        -4.6673   -1.3913    7.3619 C.2       1 <0>         0.2001
     26 C17        -4.6115    0.0844    7.2375 C.ar      1 <0>        -0.0720
     27 C18        -3.4628    0.7010    6.7423 C.ar      1 <0>        -0.0345
     28 C19        -3.4140    2.0741    6.6279 C.ar      1 <0>        -0.1527
     29 C20        -4.5069    2.8431    7.0055 C.ar      1 <0>         0.1436
     30 C21        -5.6522    2.2322    7.4989 C.ar      1 <0>        -0.2134
     31 C22        -5.7096    0.8592    7.6101 C.ar      1 <0>        -0.0426
     32 O3         -4.4554    4.1959    6.8923 O.3       1 <0>        -0.3149
     33 C23        -5.6149    4.9255    7.2988 C.3       1 <0>         0.0250
     34 H2          2.4432    1.0964    0.3068 H         1 <0>         0.0708
     35 H3          0.8755    1.8477   -0.0755 H         1 <0>         0.0710
     36 H4          1.2514    1.3755    1.5990 H         1 <0>         0.0306
     37 H5         -0.8486    0.0160    1.5817 H         1 <0>         0.0526
     38 H6         -1.1136    0.5433   -0.0980 H         1 <0>         0.0885
     39 H7         -2.2927   -1.5962    0.3909 H         1 <0>         0.0903
     40 H8         -1.0438   -1.8054   -0.8606 H         1 <0>         0.0563
     41 H9          1.3545   -3.3705    1.4227 H         1 <0>         0.0888
     42 H10         1.0895   -2.8433   -0.2570 H         1 <0>         0.0572
     43 H11         2.5337   -1.2310    0.9338 H         1 <0>         0.0884
     44 H12         1.2847   -1.0218    2.1852 H         1 <0>         0.0491
     45 H13        -1.0675   -4.2313   -0.0969 H         1 <0>         0.4028
     46 H14        -1.2794   -3.1443    3.2157 H         1 <0>         0.4268
     47 H15        -1.8690   -6.6164    3.3553 H         1 <0>         0.1569
     48 H16        -3.0541   -7.7836    5.1546 H         1 <0>         0.1429
     49 H17        -4.2545   -6.5129    6.8903 H         1 <0>         0.1346
     50 H18        -2.6122    0.1036    6.4491 H         1 <0>         0.1360
     51 H19        -2.5248    2.5522    6.2444 H         1 <0>         0.1367
     52 H20        -6.5005    2.8331    7.7917 H         1 <0>         0.1335
     53 H21        -6.6023    0.3844    7.9898 H         1 <0>         0.1311
     54 H22        -5.8186    4.7272    8.3511 H         1 <0>         0.0576
     55 H23        -5.4411    5.9922    7.1571 H         1 <0>         0.1020
     56 H24        -6.4695    4.6137    6.6983 H         1 <0>         0.0575
@<TRIPOS>BOND
     1    1    2 1
     2    1   34 1
     3    1   35 1
     4    1   36 1
     5    2    7 1
     6    2    3 1
     7    3    4 1
     8    3   37 1
     9    3   38 1
    10    4    5 1
    11    4   39 1
    12    4   40 1
    13    5    6 1
    14    5    8 1
    15    6    7 1
    16    6   41 1
    17    6   42 1
    18    7   43 1
    19    7   44 1
    20    8    9 am
    21    8   45 1
    22    9   10 2
    23    9   11 am
    24   11   12 1
    25   11   46 1
    26   12   17 ar
    27   12   13 ar
    28   13   14 ar
    29   13   47 1
    30   14   15 ar
    31   14   48 1
    32   15   16 ar
    33   15   49 1
    34   16   21 1
    35   16   17 ar
    36   17   18 1
    37   18   19 2
    38   18   20 1
    39   20   25 1
    40   20   21 2
    41   21   22 1
    42   22   24 1
    43   22   23 1
    44   23   25 2
    45   25   26 1
    46   26   31 ar
    47   26   27 ar
    48   27   28 ar
    49   27   50 1
    50   28   29 ar
    51   28   51 1
    52   29   30 ar
    53   29   32 1
    54   30   31 ar
    55   30   52 1
    56   31   53 1
    57   32   33 1
    58   33   54 1
    59   33   55 1
    60   33   56 1
@<TRIPOS>MOLECULE
CHEMBL345525
   56    60     0     0     0
SMALL
USER_CHARGES

@<TRIPOS>ATOM
      1 C1         -1.2484    1.0984   -0.9241 C.3       1 <0>         0.0242
      2 N1         -0.7078   -0.2106   -0.5338 N.3       1 <0>        -0.5467
      3 C2         -1.6998   -1.2741   -0.7447 C.3       1 <0>         0.0575
      4 C3         -1.0730   -2.6278   -0.4024 C.3       1 <0>         0.0387
      5 N2         -0.6106   -2.6119    0.9925 N.3       1 <0>        -0.3118
      6 C4          0.3813   -1.5484    1.2034 C.3       1 <0>         0.0378
      7 C5         -0.2454   -0.1947    0.8611 C.3       1 <0>         0.0573
      8 N3         -0.1080   -3.8291    1.3554 N.am      1 <0>        -0.5817
      9 C6         -0.6646   -4.5108    2.3762 C.2       1 <0>         0.7336
     10 O1         -0.2173   -5.5942    2.6993 O.2       1 <0>        -0.5671
     11 N4         -1.7172   -3.9916    3.0388 N.am      1 <0>        -0.6611
     12 C7         -2.3657   -4.7440    4.0140 C.ar      1 <0>         0.2463
     13 C8         -2.3126   -6.1339    3.9732 C.ar      1 <0>        -0.1338
     14 C9         -2.9546   -6.8822    4.9379 C.ar      1 <0>        -0.0615
     15 C10        -3.6582   -6.2613    5.9573 C.ar      1 <0>        -0.1118
     16 C11        -3.7246   -4.8756    6.0186 C.ar      1 <0>         0.0417
     17 C12        -3.0688   -4.1044    5.0426 C.ar      1 <0>        -0.1974
     18 C13        -3.2874   -2.6741    5.3381 C.2       1 <0>         0.4913
     19 O2         -2.8636   -1.7346    4.6914 O.2       1 <0>        -0.4434
     20 C14        -4.1091   -2.5896    6.5530 C.2       1 <0>        -0.3301
     21 C15        -4.3932   -3.9626    6.9787 C.2       1 <0>         0.1282
     22 N5         -5.1292   -3.8913    8.0601 N.2       1 <0>        -0.2356
     23 N6         -5.3674   -2.5499    8.3755 N.pl3     1 <0>        -0.4665
     24 H1         -5.8864   -2.2352    9.1321 H         1 <0>         0.4478
     25 C16        -4.7368   -1.7538    7.4666 C.2       1 <0>         0.2395
     26 C17        -4.7406   -0.2787    7.4441 C.ar      1 <0>        -0.0999
     27 C18        -3.5563    0.4214    7.1977 C.ar      1 <0>        -0.0252
     28 C19        -3.5644    1.7988    7.1776 C.ar      1 <0>        -0.1500
     29 C20        -4.7475    2.4920    7.4023 C.ar      1 <0>         0.1510
     30 C21        -5.9271    1.7999    7.6480 C.ar      1 <0>        -0.2105
     31 C22        -5.9295    0.4225    7.6633 C.ar      1 <0>        -0.0519
     32 O3         -4.7509    3.8497    7.3820 O.3       1 <0>        -0.3120
     33 C23        -6.0013    4.4990    7.6207 C.3       1 <0>         0.0239
     34 H2         -0.4725    1.8571   -0.8218 H         1 <0>         0.0713
     35 H3         -1.5832    1.0588   -1.9606 H         1 <0>         0.0706
     36 H4         -2.0904    1.3506   -0.2796 H         1 <0>         0.0301
     37 H5         -2.5623   -1.0997   -0.1014 H         1 <0>         0.0489
     38 H6         -2.0173   -1.2736   -1.7874 H         1 <0>         0.0886
     39 H7         -1.8158   -3.4152   -0.5303 H         1 <0>         0.0899
     40 H8         -0.2270   -2.8145   -1.0638 H         1 <0>         0.0575
     41 H9          0.6989   -1.5488    2.2461 H         1 <0>         0.0900
     42 H10         1.2439   -1.7228    0.5601 H         1 <0>         0.0567
     43 H11         0.4973    0.5927    0.9890 H         1 <0>         0.0885
     44 H12        -1.0914   -0.0080    1.5225 H         1 <0>         0.0517
     45 H13         0.6495   -4.2028    0.8786 H         1 <0>         0.4027
     46 H14        -2.0228   -3.0936    2.8361 H         1 <0>         0.4277
     47 H15        -1.7670   -6.6285    3.1831 H         1 <0>         0.1610
     48 H16        -2.9087   -7.9605    4.8980 H         1 <0>         0.1417
     49 H17        -4.1573   -6.8574    6.7069 H         1 <0>         0.1370
     50 H18        -2.6362   -0.1166    7.0237 H         1 <0>         0.1381
     51 H19        -2.6498    2.3406    6.9873 H         1 <0>         0.1405
     52 H20        -6.8444    2.3427    7.8225 H         1 <0>         0.1364
     53 H21        -6.8477   -0.1147    7.8496 H         1 <0>         0.1289
     54 H22        -6.7205    4.1930    6.8610 H         1 <0>         0.0588
     55 H23        -6.3733    4.2199    8.6065 H         1 <0>         0.0586
     56 H24        -5.8639    5.5794    7.5767 H         1 <0>         0.1042
@<TRIPOS>BOND
     1    1    2 1
     2    1   34 1
     3    1   35 1
     4    1   36 1
     5    2    7 1
     6    2    3 1
     7    3    4 1
     8    3   37 1
     9    3   38 1
    10    4    5 1
    11    4   39 1
    12    4   40 1
    13    5    6 1
    14    5    8 1
    15    6    7 1
    16    6   41 1
    17    6   42 1
    18    7   43 1
    19    7   44 1
    20    8    9 am
    21    8   45 1
    22    9   10 2
    23    9   11 am
    24   11   12 1
    25   11   46 1
    26   12   17 ar
    27   12   13 ar
    28   13   14 ar
    29   13   47 1
    30   14   15 ar
    31   14   48 1
    32   15   16 ar
    33   15   49 1
    34   16   21 1
    35   16   17 ar
    36   17   18 1
    37   18   19 2
    38   18   20 1
    39   20   25 2
    40   20   21 1
    41   21   22 2
    42   22   23 1
    43   23   24 1
    44   23   25 1
    45   25   26 1
    46   26   31 ar
    47   26   27 ar
    48   27   28 ar
    49   27   50 1
    50   28   29 ar
    51   28   51 1
    52   29   30 ar
    53   29   32 1
    54   30   31 ar
    55   30   52 1
    56   31   53 1
    57   32   33 1
    58   33   54 1
    59   33   55 1
    60   33   56 1
@<TRIPOS>MOLECULE
CHEMBL345525
   57    61     0     0     0
SMALL
USER_CHARGES

@<TRIPOS>ATOM
      1 C1          1.3877    1.1033    0.5167 C.3       1 <0>        -0.0465
      2 N1          0.7940   -0.2195    0.2805 N.4       1 <0>        -0.3900
      3 C2         -0.6419   -0.1731    0.5864 C.3       1 <0>        -0.0007
      4 C3         -1.2644   -1.5459    0.3226 C.3       1 <0>         0.0074
      5 N2         -0.5993   -2.5519    1.1626 N.3       1 <0>        -0.3083
      6 C4          0.8435   -2.5923    0.8851 C.3       1 <0>         0.0035
      7 C5          1.4486   -1.2109    1.1443 C.3       1 <0>        -0.0001
      8 N3         -1.1652   -3.7834    0.9924 N.am      1 <0>        -0.5820
      9 C6         -1.7190   -4.4215    2.0425 C.2       1 <0>         0.7323
     10 O1         -2.2227   -5.5176    1.8909 O.2       1 <0>        -0.5481
     11 N4         -1.7144   -3.8446    3.2605 N.am      1 <0>        -0.6615
     12 C7         -2.3672   -4.4593    4.3236 C.ar      1 <0>         0.2339
     13 C8         -2.3923   -5.8530    4.4209 C.ar      1 <0>        -0.1165
     14 C9         -3.0379   -6.4614    5.4733 C.ar      1 <0>        -0.0632
     15 C10        -3.6709   -5.7011    6.4492 C.ar      1 <0>        -0.1015
     16 C11        -3.6579   -4.3167    6.3715 C.ar      1 <0>         0.0099
     17 C12        -2.9948   -3.6880    5.3006 C.ar      1 <0>        -0.1876
     18 C13        -3.1398   -2.2263    5.4840 C.2       1 <0>         0.4939
     19 O2         -2.7013   -1.3593    4.7541 O.2       1 <0>        -0.4431
     20 C14        -3.9186   -2.0213    6.7221 C.2       1 <0>        -0.3190
     21 C15        -4.2352   -3.2678    7.2460 C.2       1 <0>         0.1586
     22 N5         -4.9497   -3.0597    8.3731 N.pl3     1 <0>        -0.4202
     23 N6         -5.1017   -1.6810    8.5570 N.2       1 <0>        -0.2664
     24 H1         -5.2993   -3.7506    8.9573 H         1 <0>         0.4494
     25 C16        -4.4783   -1.0485    7.5844 C.2       1 <0>         0.2015
     26 C17        -4.3994    0.4211    7.4096 C.ar      1 <0>        -0.0738
     27 C18        -3.2559    0.9989    6.8589 C.ar      1 <0>        -0.0365
     28 C19        -3.1856    2.3664    6.6975 C.ar      1 <0>        -0.1563
     29 C20        -4.2518    3.1682    7.0831 C.ar      1 <0>         0.1456
     30 C21        -5.3919    2.5960    7.6318 C.ar      1 <0>        -0.2115
     31 C22        -5.4709    1.2286    7.7901 C.ar      1 <0>        -0.0399
     32 O3         -4.1791    4.5154    6.9237 O.3       1 <0>        -0.3156
     33 C23        -5.3116    5.2801    7.3416 C.3       1 <0>         0.0237
     34 H2          2.4530    1.0694    0.2885 H         1 <0>         0.1259
     35 H3          0.9021    1.8391   -0.1242 H         1 <0>         0.1263
     36 H4          1.2485    1.3828    1.5610 H         1 <0>         0.1262
     37 H5         -0.7817    0.0940    1.6339 H         1 <0>         0.1464
     38 H6         -1.1242    0.5722   -0.0461 H         1 <0>         0.1444
     39 H7         -2.3270   -1.5158    0.5637 H         1 <0>         0.1334
     40 H8         -1.1367   -1.8073   -0.7279 H         1 <0>         0.0737
     41 H9          1.3187   -3.3257    1.5366 H         1 <0>         0.1318
     42 H10         1.0059   -2.8710   -0.1561 H         1 <0>         0.0743
     43 H11         2.5162   -1.2351    0.9254 H         1 <0>         0.1440
     44 H12         1.2981   -0.9385    2.1889 H         1 <0>         0.1435
     45 H13        -1.1686   -4.1987    0.1158 H         1 <0>         0.4120
     46 H14        -1.2558   -3.0006    3.3956 H         1 <0>         0.4228
     47 H15        -1.9041   -6.4543    3.6683 H         1 <0>         0.1563
     48 H16        -3.0530   -7.5392    5.5411 H         1 <0>         0.1466
     49 H17        -4.1745   -6.1897    7.2701 H         1 <0>         0.1389
     50 H18        -2.4260    0.3759    6.5594 H         1 <0>         0.1337
     51 H19        -2.3003    2.8145    6.2711 H         1 <0>         0.1345
     52 H20        -6.2194    3.2223    7.9307 H         1 <0>         0.1355
     53 H21        -6.3597    0.7838    8.2127 H         1 <0>         0.1327
     54 H22        -6.1903    4.9655    6.7785 H         1 <0>         0.0586
     55 H23        -5.4855    5.1201    8.4056 H         1 <0>         0.0597
     56 H24        -5.1229    6.3381    7.1593 H         1 <0>         0.1040
     57 H25         0.9234   -0.4783   -0.6861 H         1 <0>         0.4236
@<TRIPOS>BOND
     1    1    2 1
     2    1   34 1
     3    1   35 1
     4    1   36 1
     5    2    7 1
     6    2    3 1
     7    2   57 1
     8    3    4 1
     9    3   37 1
    10    3   38 1
    11    4    5 1
    12    4   39 1
    13    4   40 1
    14    5    6 1
    15    5    8 1
    16    6    7 1
    17    6   41 1
    18    6   42 1
    19    7   43 1
    20    7   44 1
    21    8    9 am
    22    8   45 1
    23    9   10 2
    24    9   11 am
    25   11   12 1
    26   11   46 1
    27   12   17 ar
    28   12   13 ar
    29   13   14 ar
    30   13   47 1
    31   14   15 ar
    32   14   48 1
    33   15   16 ar
    34   15   49 1
    35   16   21 1
    36   16   17 ar
    37   17   18 1
    38   18   19 2
    39   18   20 1
    40   20   25 1
    41   20   21 2
    42   21   22 1
    43   22   24 1
    44   22   23 1
    45   23   25 2
    46   25   26 1
    47   26   31 ar
    48   26   27 ar
    49   27   28 ar
    50   27   50 1
    51   28   29 ar
    52   28   51 1
    53   29   30 ar
    54   29   32 1
    55   30   31 ar
    56   30   52 1
    57   31   53 1
    58   32   33 1
    59   33   54 1
    60   33   55 1
    61   33   56 1
@<TRIPOS>MOLECULE
CHEMBL298445
   35    37     0     0     0
SMALL
USER_CHARGES

@<TRIPOS>ATOM
      1 C1         -0.7659    1.4570   -0.0637 C.3       1 <0>        -0.0884
      2 C2         -0.5990   -0.0407   -0.0572 C.2       1 <0>         0.1937
      3 C3         -0.2891   -0.7354   -1.1990 C.2       1 <0>        -0.2587
      4 S1         -0.2298   -2.4038   -0.5655 S.3       1 <0>         0.1341
      5 C4         -0.5947   -2.0566    1.0403 C.2       1 <0>         0.3350
      6 N1         -0.7378   -0.7451    1.0435 N.2       1 <0>        -0.5964
      7 N2         -0.7119   -2.9340    2.1015 N.pl3     1 <0>        -0.7905
      8 C5         -0.0671   -0.2412   -2.5693 C.ar      1 <0>         0.3351
      9 C6          0.2381   -1.1329   -3.6077 C.ar      1 <0>        -0.2745
     10 C7          0.4371   -0.6225   -4.8750 C.ar      1 <0>         0.1991
     11 N3          0.3350    0.6840   -5.0722 N.ar      1 <0>        -0.5706
     12 C8          0.0454    1.5057   -4.0736 C.ar      1 <0>         0.5694
     13 N4         -0.1586    1.0614   -2.8437 N.ar      1 <0>        -0.5558
     14 N5         -0.0512    2.8647   -4.3246 N.pl3     1 <0>        -0.6394
     15 C9          0.0407    3.3417   -5.6356 C.ar      1 <0>         0.1769
     16 C10        -0.5561    2.6397   -6.6752 C.ar      1 <0>        -0.0605
     17 C11        -0.4639    3.1139   -7.9688 C.ar      1 <0>        -0.0957
     18 C12         0.2221    4.2861   -8.2301 C.ar      1 <0>        -0.0710
     19 C13         0.8176    4.9870   -7.1977 C.ar      1 <0>        -0.0274
     20 C14         0.7239    4.5215   -5.9006 C.ar      1 <0>        -0.0879
     21 N6          1.5516    6.2405   -7.4821 N.pl3     1 <0>         0.0334
     22 O1          1.6302    6.6510   -8.6166 O.2       1 <0>        -0.1537
     23 O2          2.0726    6.8539   -6.5799 O.3       1 <0>        -0.1581
     24 H1          0.1959    1.9305    0.1334 H         1 <0>         0.0800
     25 H2         -1.1356    1.7771   -1.0379 H         1 <0>         0.0995
     26 H3         -1.4786    1.7465    0.7085 H         1 <0>         0.0719
     27 H4         -0.5771   -3.8844    1.9621 H         1 <0>         0.4233
     28 H5         -0.9289   -2.5994    2.9857 H         1 <0>         0.4189
     29 H6          0.3159   -2.1937   -3.4205 H         1 <0>         0.1454
     30 H7          0.6740   -1.2814   -5.6973 H         1 <0>         0.1748
     31 H8         -0.1825    3.4853   -3.5907 H         1 <0>         0.4290
     32 H9         -1.0913    1.7240   -6.4720 H         1 <0>         0.1472
     33 H10        -0.9277    2.5686   -8.7775 H         1 <0>         0.1517
     34 H11         0.2931    4.6546   -9.2428 H         1 <0>         0.1549
     35 H12         1.1852    5.0719   -5.0941 H         1 <0>         0.1554
@<TRIPOS>BOND
     1    1    2 1
     2    1   24 1
     3    1   25 1
     4    1   26 1
     5    2    6 1
     6    2    3 2
     7    3    4 1
     8    3    8 1
     9    4    5 1
    10    5    6 2
    11    5    7 1
    12    7   27 1
    13    7   28 1
    14    8   13 ar
    15    8    9 ar
    16    9   10 ar
    17    9   29 1
    18   10   11 ar
    19   10   30 1
    20   11   12 ar
    21   12   13 ar
    22   12   14 1
    23   14   15 1
    24   14   31 1
    25   15   20 ar
    26   15   16 ar
    27   16   17 ar
    28   16   32 1
    29   17   18 ar
    30   17   33 1
    31   18   19 ar
    32   18   34 1
    33   19   20 ar
    34   19   21 1
    35   20   35 1
    36   21   22 2
    37   21   23 1
@<TRIPOS>MOLECULE
CHEMBL402548
   66    70     0     0     0
SMALL
USER_CHARGES

@<TRIPOS>ATOM
      1 C1          0.7850    1.5048    0.0021 C.3       1 <0>        -0.0472
      2 N1          0.7580    0.0360    0.0001 N.4       1 <0>        -0.3844
      3 C2         -0.6347   -0.4260   -0.0528 C.3       1 <0>        -0.0233
      4 C3         -0.6610   -1.9535   -0.1705 C.3       1 <0>         0.0948
      5 N2          0.1251   -2.5201    0.9364 N.pl3     1 <0>        -0.6397
      6 C4          1.4802   -1.9947    1.1643 C.3       1 <0>         0.0958
      7 C5          1.4053   -0.4653    1.2191 C.3       1 <0>        -0.0229
      8 C6         -0.3981   -3.5235    1.7446 C.ar      1 <0>         0.2274
      9 C7         -1.7227   -3.9220    1.5875 C.ar      1 <0>        -0.1950
     10 C8         -2.2435   -4.9143    2.3860 C.ar      1 <0>        -0.0041
     11 C9         -1.4408   -5.5227    3.3555 C.ar      1 <0>        -0.1718
     12 C10        -0.1108   -5.1206    3.5105 C.ar      1 <0>        -0.0339
     13 C11         0.4056   -4.1313    2.7053 C.ar      1 <0>        -0.1935
     14 C12        -1.9960   -6.5863    4.2134 C.2       1 <0>         0.5544
     15 O1         -3.1532   -6.9349    4.0778 O.2       1 <0>        -0.4845
     16 N3         -1.2209   -7.1719    5.1476 N.am      1 <0>        -0.6361
     17 C13        -1.7482   -8.1821    5.9625 C.2       1 <0>         0.3362
     18 C14        -1.0575   -8.8714    6.9758 C.2       1 <0>        -0.2825
     19 C15        -1.9094   -9.7615    7.5259 C.2       1 <0>         0.0771
     20 N4         -3.0975   -9.6466    6.8902 N.pl3     1 <0>        -0.4390
     21 H1         -3.8964  -10.1638    7.0776 H         1 <0>         0.4475
     22 N5         -2.9739   -8.6469    5.9178 N.2       1 <0>        -0.2476
     23 C16        -1.2016  -10.5209    8.6193 C.3       1 <0>         0.1701
     24 N6          0.1730  -10.0121    8.6910 N.am      1 <0>        -0.6104
     25 C17         0.2815   -8.9716    7.6619 C.3       1 <0>         0.1946
     26 C18         1.1425  -10.4191    9.5342 C.2       1 <0>         0.5508
     27 O2          2.2127   -9.8488    9.5481 O.2       1 <0>        -0.4984
     28 C19         0.8966  -11.5827   10.4597 C.3       1 <0>         0.1224
     29 H2         -0.0554  -11.4444   10.9723 H         1 <0>         0.0940
     30 C20         0.8561  -12.8600    9.6610 C.ar      1 <0>        -0.1223
     31 C21         2.0322  -13.4362    9.2188 C.ar      1 <0>        -0.0830
     32 C22         1.9951  -14.6078    8.4861 C.ar      1 <0>        -0.1181
     33 C23         0.7819  -15.2035    8.1962 C.ar      1 <0>        -0.1075
     34 C24        -0.3942  -14.6278    8.6392 C.ar      1 <0>        -0.1199
     35 C25        -0.3568  -13.4585    9.3755 C.ar      1 <0>        -0.1133
     36 O3          1.9498  -11.6562   11.4227 O.3       1 <0>        -0.3512
     37 C26         1.5496  -12.2019   12.6813 C.3       1 <0>         0.0269
     38 H3          1.8188    1.8491    0.0333 H         1 <0>         0.1258
     39 H4          0.3048    1.8783   -0.9023 H         1 <0>         0.1258
     40 H5          0.2516    1.8768    0.8769 H         1 <0>         0.1221
     41 H6         -1.1531   -0.1226    0.8568 H         1 <0>         0.1336
     42 H7         -1.1310    0.0138   -0.9179 H         1 <0>         0.1429
     43 H8         -1.6898   -2.3081   -0.1081 H         1 <0>         0.1298
     44 H9         -0.2236   -2.2551   -1.1223 H         1 <0>         0.0921
     45 H10         1.8669   -2.3766    2.1092 H         1 <0>         0.1291
     46 H11         2.1338   -2.3005    0.3474 H         1 <0>         0.0916
     47 H12         2.4123   -0.0545    1.2911 H         1 <0>         0.1429
     48 H13         0.8252   -0.1607    2.0902 H         1 <0>         0.1334
     49 H14        -2.3423   -3.4516    0.8383 H         1 <0>         0.1324
     50 H15        -3.2714   -5.2225    2.2641 H         1 <0>         0.1442
     51 H16         0.5118   -5.5886    4.2586 H         1 <0>         0.1327
     52 H17         1.4340   -3.8230    2.8217 H         1 <0>         0.1324
     53 H18        -0.2979   -6.8939    5.2558 H         1 <0>         0.4197
     54 H19        -1.7071  -10.3567    9.5709 H         1 <0>         0.0954
     55 H20        -1.1905  -11.5850    8.3833 H         1 <0>         0.1014
     56 H21         1.0487   -9.2458    6.9379 H         1 <0>         0.0789
     57 H22         0.5321   -8.0175    8.1255 H         1 <0>         0.0801
     58 H23         2.9801  -12.9707    9.4453 H         1 <0>         0.1307
     59 H24         2.9139  -15.0576    8.1400 H         1 <0>         0.1270
     60 H25         0.7528  -16.1185    7.6232 H         1 <0>         0.1258
     61 H26        -1.3421  -15.0931    8.4124 H         1 <0>         0.1269
     62 H27        -1.2754  -13.0107    9.7249 H         1 <0>         0.1243
     63 H28         1.1757  -13.2154   12.5355 H         1 <0>         0.0479
     64 H29         2.4051  -12.2238   13.3564 H         1 <0>         0.0967
     65 H30         0.7626  -11.5828   13.1120 H         1 <0>         0.0466
     66 H31         1.2546   -0.3072   -0.8084 H         1 <0>         0.4252
@<TRIPOS>BOND
     1    1    2 1
     2    1   38 1
     3    1   39 1
     4    1   40 1
     5    2    7 1
     6    2    3 1
     7    2   66 1
     8    3    4 1
     9    3   41 1
    10    3   42 1
    11    4    5 1
    12    4   43 1
    13    4   44 1
    14    5    6 1
    15    5    8 1
    16    6    7 1
    17    6   45 1
    18    6   46 1
    19    7   47 1
    20    7   48 1
    21    8   13 ar
    22    8    9 ar
    23    9   10 ar
    24    9   49 1
    25   10   11 ar
    26   10   50 1
    27   11   12 ar
    28   11   14 1
    29   12   13 ar
    30   12   51 1
    31   13   52 1
    32   14   15 2
    33   14   16 am
    34   16   17 1
    35   16   53 1
    36   17   22 2
    37   17   18 1
    38   18   25 1
    39   18   19 2
    40   19   20 1
    41   19   23 1
    42   20   21 1
    43   20   22 1
    44   23   24 1
    45   23   54 1
    46   23   55 1
    47   24   25 1
    48   24   26 am
    49   25   56 1
    50   25   57 1
    51   26   27 2
    52   26   28 1
    53   28   29 1
    54   28   30 1
    55   28   36 1
    56   30   35 ar
    57   30   31 ar
    58   31   32 ar
    59   31   58 1
    60   32   33 ar
    61   32   59 1
    62   33   34 ar
    63   33   60 1
    64   34   35 ar
    65   34   61 1
    66   35   62 1
    67   36   37 1
    68   37   63 1
    69   37   64 1
    70   37   65 1
@<TRIPOS>MOLECULE
CHEMBL402548
   66    70     0     0     0
SMALL
USER_CHARGES

@<TRIPOS>ATOM
      1 C1          1.1786    1.0540   -0.5238 C.3       1 <0>        -0.0474
      2 N1          1.4854   -0.3788   -0.4192 N.4       1 <0>        -0.3846
      3 C2          0.3239   -1.1599   -0.8628 C.3       1 <0>        -0.0233
      4 C3          0.6815   -2.6499   -0.8630 C.3       1 <0>         0.0940
      5 N2          1.1808   -3.0098    0.4731 N.pl3     1 <0>        -0.6385
      6 C4          2.2377   -2.1758    1.0661 C.3       1 <0>         0.0948
      7 C5          1.8066   -0.7082    0.9752 C.3       1 <0>        -0.0229
      8 C6          0.6681   -4.1070    1.1564 C.ar      1 <0>         0.2347
      9 C7         -0.4052   -4.8167    0.6248 C.ar      1 <0>        -0.1965
     10 C8         -0.9149   -5.9030    1.2985 C.ar      1 <0>         0.0011
     11 C9         -0.3535   -6.2938    2.5179 C.ar      1 <0>        -0.1808
     12 C10         0.7246   -5.5792    3.0487 C.ar      1 <0>        -0.0288
     13 C11         1.2328   -4.4968    2.3677 C.ar      1 <0>        -0.1939
     14 C12        -0.8976   -7.4572    3.2428 C.2       1 <0>         0.5689
     15 O1         -1.8356   -8.0777    2.7800 O.2       1 <0>        -0.5249
     16 N3         -0.3553   -7.8328    4.4181 N.am      1 <0>        -0.6401
     17 C13        -0.8696   -8.9323    5.1032 C.2       1 <0>         0.3556
     18 C14        -0.4227   -9.4213    6.2938 C.2       1 <0>        -0.3065
     19 C15        -1.2092  -10.5253    6.6273 C.2       1 <0>         0.0700
     20 N4         -2.0975  -10.7008    5.6798 N.2       1 <0>        -0.2414
     21 H1         -2.4326   -9.5974    3.8988 H         1 <0>         0.4562
     22 N5         -1.9115   -9.7087    4.7093 N.pl3     1 <0>        -0.4534
     23 C16        -0.7268  -11.0791    7.9445 C.3       1 <0>         0.1839
     24 N6          0.3965  -10.2510    8.3936 N.am      1 <0>        -0.6103
     25 C17         0.6020   -9.2126    7.3792 C.3       1 <0>         0.2042
     26 C18         1.1074  -10.4139    9.5269 C.2       1 <0>         0.5507
     27 O2          1.9568   -9.6036    9.8318 O.2       1 <0>        -0.5026
     28 C19         0.8469  -11.6029   10.4155 C.3       1 <0>         0.1221
     29 H2         -0.2267  -11.7147   10.5673 H         1 <0>         0.0945
     30 C20         1.3944  -12.8465    9.7638 C.ar      1 <0>        -0.1222
     31 C21         2.7547  -13.0918    9.7764 C.ar      1 <0>        -0.0836
     32 C22         3.2569  -14.2325    9.1787 C.ar      1 <0>        -0.1199
     33 C23         2.3987  -15.1283    8.5687 C.ar      1 <0>        -0.1081
     34 C24         1.0383  -14.8835    8.5569 C.ar      1 <0>        -0.1192
     35 C25         0.5357  -13.7448    9.1584 C.ar      1 <0>        -0.1104
     36 O3          1.4882  -11.4044   11.6770 O.3       1 <0>        -0.3519
     37 C26         0.8235  -12.0364   12.7728 C.3       1 <0>         0.0269
     38 H3          2.0430    1.6351   -0.2023 H         1 <0>         0.1263
     39 H4          0.9400    1.2998   -1.5586 H         1 <0>         0.1262
     40 H5          0.3252    1.2902    0.1118 H         1 <0>         0.1223
     41 H6         -0.5113   -0.9867   -0.1841 H         1 <0>         0.1338
     42 H7          0.0431   -0.8534   -1.8704 H         1 <0>         0.1437
     43 H8         -0.2058   -3.2395   -1.0935 H         1 <0>         0.1300
     44 H9          1.4551   -2.8407   -1.6068 H         1 <0>         0.0934
     45 H10         2.3792   -2.4519    2.1110 H         1 <0>         0.1295
     46 H11         3.1684   -2.3188    0.5171 H         1 <0>         0.0930
     47 H12         2.6184   -0.0688    1.3220 H         1 <0>         0.1438
     48 H13         0.9266   -0.5487    1.5983 H         1 <0>         0.1337
     49 H14        -0.8384   -4.5143   -0.3171 H         1 <0>         0.1345
     50 H15        -1.7480   -6.4527    0.8860 H         1 <0>         0.1453
     51 H16         1.1604   -5.8787    3.9904 H         1 <0>         0.1339
     52 H17         2.0679   -3.9466    2.7754 H         1 <0>         0.1348
     53 H18         0.3928   -7.3379    4.7872 H         1 <0>         0.4276
     54 H19        -1.5315  -11.0393    8.6787 H         1 <0>         0.0962
     55 H20        -0.3966  -12.1095    7.8130 H         1 <0>         0.1012
     56 H21         1.6052   -9.2978    6.9613 H         1 <0>         0.0764
     57 H22         0.4702   -8.2276    7.8270 H         1 <0>         0.0777
     58 H23         3.4252  -12.3920   10.2530 H         1 <0>         0.1300
     59 H24         4.3198  -14.4238    9.1879 H         1 <0>         0.1260
     60 H25         2.7912  -16.0192    8.1011 H         1 <0>         0.1250
     61 H26         0.3678  -15.5831    8.0801 H         1 <0>         0.1273
     62 H27        -0.5276  -13.5554    9.1524 H         1 <0>         0.1262
     63 H28        -0.1885  -11.6411   12.8607 H         1 <0>         0.0466
     64 H29         0.7798  -13.1117   12.5998 H         1 <0>         0.0480
     65 H30         1.3721  -11.8385   13.6936 H         1 <0>         0.0959
     66 H31         2.2773   -0.5956   -1.0057 H         1 <0>         0.4255
@<TRIPOS>BOND
     1    1    2 1
     2    1   38 1
     3    1   39 1
     4    1   40 1
     5    2    7 1
     6    2    3 1
     7    2   66 1
     8    3    4 1
     9    3   41 1
    10    3   42 1
    11    4    5 1
    12    4   43 1
    13    4   44 1
    14    5    6 1
    15    5    8 1
    16    6    7 1
    17    6   45 1
    18    6   46 1
    19    7   47 1
    20    7   48 1
    21    8   13 ar
    22    8    9 ar
    23    9   10 ar
    24    9   49 1
    25   10   11 ar
    26   10   50 1
    27   11   12 ar
    28   11   14 1
    29   12   13 ar
    30   12   51 1
    31   13   52 1
    32   14   15 2
    33   14   16 am
    34   16   53 1
    35   16   17 1
    36   17   18 2
    37   17   22 1
    38   18   19 1
    39   18   25 1
    40   19   20 2
    41   19   23 1
    42   20   22 1
    43   21   22 1
    44   23   24 1
    45   23   54 1
    46   23   55 1
    47   24   25 1
    48   24   26 am
    49   25   56 1
    50   25   57 1
    51   26   27 2
    52   26   28 1
    53   28   29 1
    54   28   30 1
    55   28   36 1
    56   30   35 ar
    57   30   31 ar
    58   31   32 ar
    59   31   58 1
    60   32   33 ar
    61   32   59 1
    62   33   34 ar
    63   33   60 1
    64   34   35 ar
    65   34   61 1
    66   35   62 1
    67   36   37 1
    68   37   63 1
    69   37   64 1
    70   37   65 1
@<TRIPOS>MOLECULE
CHEMBL361833
   60    64     0     0     0
SMALL
USER_CHARGES

@<TRIPOS>ATOM
      1 C1         -0.1953    4.5079    5.3075 C.ar      1 <0>        -0.0622
      2 C2         -0.2521    3.8132    6.5013 C.ar      1 <0>        -0.1392
      3 C3          0.9122    3.5196    7.1862 C.ar      1 <0>        -0.0237
      4 C4          2.1333    3.9202    6.6770 C.ar      1 <0>        -0.6588
      5 C5          2.1902    4.6141    5.4828 C.ar      1 <0>        -0.0225
      6 C6          1.0258    4.9089    4.7986 C.ar      1 <0>        -0.1382
      7 S1          3.6173    3.5469    7.5506 S.o2      1 <0>         2.5831
      8 O1          4.5823    4.5058    7.1401 O.2       1 <0>        -0.9336
      9 O2          3.2528    3.3676    8.9123 O.2       1 <0>        -0.9349
     10 C7          4.1837    1.9824    6.9707 C.ar      1 <0>        -0.6869
     11 C8          3.7612    0.8219    7.5929 C.ar      1 <0>         0.0220
     12 C9          4.2031   -0.4060    7.1410 C.ar      1 <0>        -0.1751
     13 C10         5.0731   -0.4745    6.0601 C.ar      1 <0>         0.2419
     14 C11         5.4954    0.6933    5.4374 C.ar      1 <0>        -0.1801
     15 C12         5.0452    1.9175    5.8909 C.ar      1 <0>         0.0207
     16 N1          5.5227   -1.7155    5.6004 N.pl3     1 <0>        -0.6719
     17 C13         5.2209   -2.8633    6.3054 C.2       1 <0>         0.4667
     18 C14         4.5423   -3.8842    5.7067 C.2       1 <0>        -0.2711
     19 C15         4.2483   -5.0413    6.4461 C.2       1 <0>         0.4775
     20 N2          4.6265   -5.1373    7.7089 N.2       1 <0>        -0.5389
     21 C16         5.2942   -4.1385    8.3058 C.2       1 <0>         0.3519
     22 N3          5.6044   -2.9954    7.6163 N.pl3     1 <0>        -0.3449
     23 N4          6.2996   -2.1487    8.4872 N.2       1 <0>        -0.2931
     24 C17         6.4163   -2.7419    9.6527 C.2       1 <0>         0.1360
     25 C18         5.7967   -3.9836    9.5906 C.2       1 <0>        -0.2605
     26 Br1         5.6765   -5.2431   10.9960 Br        1 <0>        -0.0041
     27 N5          3.5594   -6.0852    5.8502 N.pl3     1 <0>        -0.6986
     28 C19         3.2515   -7.2933    6.6196 C.3       1 <0>         0.1487
     29 C20         4.4464   -8.2476    6.5702 C.3       1 <0>        -0.1294
     30 C21         4.1249   -9.5094    7.3737 C.3       1 <0>        -0.1391
     31 C22         2.8974  -10.1975    6.7731 C.3       1 <0>         0.0236
     32 C23         1.7025   -9.2431    6.8224 C.3       1 <0>        -0.1371
     33 C24         2.0241   -7.9814    6.0189 C.3       1 <0>        -0.1282
     34 N6          2.5887  -11.4089    7.5445 N.4       1 <0>        -0.6369
     35 H1         -1.1046    4.7334    4.7702 H         1 <0>         0.1331
     36 H2         -1.2062    3.5002    6.8991 H         1 <0>         0.1347
     37 H3          0.8677    2.9774    8.1192 H         1 <0>         0.1414
     38 H4          3.1442    4.9274    5.0852 H         1 <0>         0.1430
     39 H5          1.0702    5.4514    3.8658 H         1 <0>         0.1358
     40 H6          3.0851    0.8758    8.4334 H         1 <0>         0.1449
     41 H7          3.8731   -1.3119    7.6276 H         1 <0>         0.1195
     42 H8          6.1720    0.6435    4.5971 H         1 <0>         0.1399
     43 H9          5.3694    2.8255    5.4043 H         1 <0>         0.1500
     44 H10         6.0468   -1.7702    4.7860 H         1 <0>         0.4310
     45 H11         4.2341   -3.8032    4.6748 H         1 <0>         0.1692
     46 H12         6.9072   -2.3281   10.5211 H         1 <0>         0.2052
     47 H13         3.2809   -6.0161    4.9236 H         1 <0>         0.4171
     48 H14         3.0457   -7.0220    7.6550 H         1 <0>         0.1032
     49 H15         4.6522   -8.5189    5.5348 H         1 <0>         0.0754
     50 H16         5.3208   -7.7574    6.9981 H         1 <0>         0.0933
     51 H17         4.9761  -10.1892    7.3385 H         1 <0>         0.0922
     52 H18         3.9190   -9.2381    8.4091 H         1 <0>         0.0936
     53 H19         3.1032  -10.4687    5.7376 H         1 <0>         0.1427
     54 H20         0.8281   -9.7333    6.3945 H         1 <0>         0.0949
     55 H21         1.4967   -8.9719    7.8579 H         1 <0>         0.0934
     56 H22         1.1728   -7.3015    6.0541 H         1 <0>         0.0936
     57 H23         2.2299   -8.2526    4.9835 H         1 <0>         0.0819
     58 H24         2.3981  -11.1578    8.5030 H         1 <0>         0.4345
     59 H25         1.7792  -11.8627    7.1484 H         1 <0>         0.4365
     60 H26         3.3767  -12.0383    7.5120 H         1 <0>         0.4374
@<TRIPOS>BOND
     1    1    6 ar
     2    1    2 ar
     3    1   35 1
     4    2    3 ar
     5    2   36 1
     6    3    4 ar
     7    3   37 1
     8    4    5 ar
     9    4    7 1
    10    5    6 ar
    11    5   38 1
    12    6   39 1
    13    7    8 2
    14    7    9 2
    15    7   10 1
    16   10   15 ar
    17   10   11 ar
    18   11   12 ar
    19   11   40 1
    20   12   13 ar
    21   12   41 1
    22   13   14 ar
    23   13   16 1
    24   14   15 ar
    25   14   42 1
    26   15   43 1
    27   16   17 1
    28   16   44 1
    29   17   22 1
    30   17   18 2
    31   18   19 1
    32   18   45 1
    33   19   20 2
    34   19   27 1
    35   20   21 1
    36   21   25 2
    37   21   22 1
    38   22   23 1
    39   23   24 2
    40   24   25 1
    41   24   46 1
    42   25   26 1
    43   27   28 1
    44   27   47 1
    45   28   33 1
    46   28   29 1
    47   28   48 1
    48   29   30 1
    49   29   49 1
    50   29   50 1
    51   30   31 1
    52   30   51 1
    53   30   52 1
    54   31   32 1
    55   31   34 1
    56   31   53 1
    57   32   33 1
    58   32   54 1
    59   32   55 1
    60   33   56 1
    61   33   57 1
    62   34   58 1
    63   34   59 1
    64   34   60 1
@<TRIPOS>MOLECULE
CHEMBL147184
   67    72     0     0     0
SMALL
USER_CHARGES

@<TRIPOS>ATOM
      1 C1          2.3592    0.2696   -1.4103 C.3       1 <0>        -0.0457
      2 N1          1.7692   -1.0421   -1.1115 N.4       1 <0>        -0.3896
      3 C2          0.3388   -0.8802   -0.8194 C.3       1 <0>        -0.0010
      4 C3         -0.2802   -2.2487   -0.5265 C.3       1 <0>         0.0256
      5 N2          0.4060   -2.8580    0.6216 N.3       1 <0>        -0.5228
      6 C4          1.8437   -3.0035    0.3533 C.3       1 <0>         0.0168
      7 C5          2.4452   -1.6288    0.0532 C.3       1 <0>         0.0009
      8 C6         -0.1980   -4.1509    0.9704 C.3       1 <0>         0.0356
      9 C7          0.3603   -4.6274    2.2865 C.2       1 <0>         0.5191
     10 O1          1.1806   -3.9561    2.8759 O.2       1 <0>        -0.5036
     11 N3         -0.0519   -5.7996    2.8086 N.am      1 <0>        -0.6633
     12 C8          0.5290   -6.2835    3.9763 C.ar      1 <0>         0.2153
     13 C9          0.9405   -5.3975    4.9751 C.ar      1 <0>        -0.1163
     14 C10         1.5149   -5.8762    6.1309 C.ar      1 <0>        -0.0666
     15 C11         1.6924   -7.2414    6.3190 C.ar      1 <0>        -0.1023
     16 C12         1.2909   -8.1379    5.3401 C.ar      1 <0>         0.0139
     17 C13         0.6980   -7.6552    4.1582 C.ar      1 <0>        -0.1823
     18 C14         0.3708   -8.8264    3.3139 C.2       1 <0>         0.4868
     19 O2         -0.1485   -8.8031    2.2155 O.2       1 <0>        -0.4350
     20 C15         0.7955  -10.0285    4.0593 C.2       1 <0>        -0.3168
     21 C16         1.3516   -9.6174    5.2637 C.2       1 <0>         0.1513
     22 N4          1.7367  -10.7284    5.9279 N.pl3     1 <0>        -0.4216
     23 H1          2.1501  -10.7486    6.8052 H         1 <0>         0.4478
     24 N5          1.4394  -11.8454    5.1396 N.2       1 <0>        -0.2705
     25 C17         0.8652  -11.4418    4.0250 C.2       1 <0>         0.2107
     26 C18         0.3969  -12.3117    2.9206 C.ar      1 <0>        -0.1011
     27 C19        -0.7338  -11.9580    2.1842 C.ar      1 <0>        -0.0222
     28 C20        -1.1674  -12.7686    1.1575 C.ar      1 <0>        -0.2031
     29 C21        -0.4791  -13.9385    0.8557 C.ar      1 <0>         0.2398
     30 C22         0.6480  -14.2935    1.5887 C.ar      1 <0>        -0.2041
     31 C23         1.0893  -13.4826    2.6120 C.ar      1 <0>        -0.0292
     32 N6         -0.9203  -14.7577   -0.1837 N.pl3     1 <0>        -0.6281
     33 C24        -0.2877  -16.0610   -0.4416 C.3       1 <0>         0.0834
     34 C25        -1.3893  -17.1231   -0.5345 C.3       1 <0>         0.0451
     35 O3         -2.3748  -16.6978   -1.4787 O.3       1 <0>        -0.3778
     36 C26        -3.0488  -15.4899   -1.1173 C.3       1 <0>         0.0447
     37 C27        -2.0359  -14.3467   -1.0507 C.3       1 <0>         0.0835
     38 H2          3.4204    0.1495   -1.6283 H         1 <0>         0.1243
     39 H3          1.8577    0.7052   -2.2745 H         1 <0>         0.1242
     40 H4          2.2372    0.9274   -0.5498 H         1 <0>         0.1234
     41 H5          0.2163   -0.2327    0.0488 H         1 <0>         0.1390
     42 H6         -0.1592   -0.4328   -1.6795 H         1 <0>         0.1379
     43 H7         -1.3384   -2.1272   -0.2951 H         1 <0>         0.1265
     44 H8         -0.1700   -2.8921   -1.3994 H         1 <0>         0.0642
     45 H9          2.3350   -3.4326    1.2266 H         1 <0>         0.1390
     46 H10         1.9889   -3.6593   -0.5051 H         1 <0>         0.0590
     47 H11         3.5087   -1.7363   -0.1601 H         1 <0>         0.1362
     48 H12         2.3119   -0.9774    0.9169 H         1 <0>         0.1399
     49 H13        -1.2787   -4.0362    1.0543 H         1 <0>         0.1248
     50 H14         0.0307   -4.8802    0.1933 H         1 <0>         0.0853
     51 H15        -0.7536   -6.3058    2.3701 H         1 <0>         0.4228
     52 H16         0.8080   -4.3342    4.8399 H         1 <0>         0.1545
     53 H17         1.8306   -5.1847    6.8980 H         1 <0>         0.1451
     54 H18         2.1445   -7.6053    7.2298 H         1 <0>         0.1386
     55 H19        -1.2691  -11.0497    2.4186 H         1 <0>         0.1266
     56 H20        -2.0428  -12.4951    0.5870 H         1 <0>         0.1277
     57 H21         1.1805  -15.2030    1.3530 H         1 <0>         0.1284
     58 H22         1.9678  -13.7561    3.1777 H         1 <0>         0.1281
     59 H23         0.2644  -16.0217   -1.3806 H         1 <0>         0.0738
     60 H24         0.3917  -16.3072    0.3744 H         1 <0>         0.0950
     61 H25        -0.9566  -18.0688   -0.8609 H         1 <0>         0.1076
     62 H26        -1.8536  -17.2525    0.4431 H         1 <0>         0.0573
     63 H27        -3.8100  -15.2606   -1.8630 H         1 <0>         0.1068
     64 H28        -3.5192  -15.6133   -0.1418 H         1 <0>         0.0567
     65 H29        -2.5136  -13.4581   -0.6379 H         1 <0>         0.0944
     66 H30        -1.6628  -14.1318   -2.0521 H         1 <0>         0.0731
     67 H31         1.8826   -1.6510   -1.9080 H         1 <0>         0.4221
@<TRIPOS>BOND
     1    1    2 1
     2    1   38 1
     3    1   39 1
     4    1   40 1
     5    2    7 1
     6    2    3 1
     7    2   67 1
     8    3    4 1
     9    3   41 1
    10    3   42 1
    11    4    5 1
    12    4   43 1
    13    4   44 1
    14    5    6 1
    15    5    8 1
    16    6    7 1
    17    6   45 1
    18    6   46 1
    19    7   47 1
    20    7   48 1
    21    8    9 1
    22    8   49 1
    23    8   50 1
    24    9   10 2
    25    9   11 am
    26   11   12 1
    27   11   51 1
    28   12   17 ar
    29   12   13 ar
    30   13   14 ar
    31   13   52 1
    32   14   15 ar
    33   14   53 1
    34   15   16 ar
    35   15   54 1
    36   16   21 1
    37   16   17 ar
    38   17   18 1
    39   18   19 2
    40   18   20 1
    41   20   25 1
    42   20   21 2
    43   21   22 1
    44   22   23 1
    45   22   24 1
    46   24   25 2
    47   25   26 1
    48   26   31 ar
    49   26   27 ar
    50   27   28 ar
    51   27   55 1
    52   28   29 ar
    53   28   56 1
    54   29   30 ar
    55   29   32 1
    56   30   31 ar
    57   30   57 1
    58   31   58 1
    59   32   37 1
    60   32   33 1
    61   33   34 1
    62   33   59 1
    63   33   60 1
    64   34   35 1
    65   34   61 1
    66   34   62 1
    67   35   36 1
    68   36   37 1
    69   36   63 1
    70   36   64 1
    71   37   65 1
    72   37   66 1
@<TRIPOS>MOLECULE
CHEMBL147184
   67    72     0     0     0
SMALL
USER_CHARGES

@<TRIPOS>ATOM
      1 C1         -3.0491    1.1730    1.1523 C.3       1 <0>        -0.0458
      2 N1         -2.3537   -0.1029    0.9369 N.4       1 <0>        -0.3893
      3 C2         -3.3325   -1.1407    0.5870 C.3       1 <0>        -0.0013
      4 C3         -2.6065   -2.4657    0.3441 C.3       1 <0>         0.0259
      5 N2         -1.8732   -2.8491    1.5588 N.3       1 <0>        -0.5229
      6 C4         -0.9067   -1.8079    1.9356 C.3       1 <0>         0.0172
      7 C5         -1.6467   -0.4883    2.1654 C.3       1 <0>         0.0004
      8 C6         -1.2076   -4.1469    1.3843 C.3       1 <0>         0.0355
      9 C7         -0.6767   -4.6218    2.7123 C.2       1 <0>         0.5170
     10 O1         -0.8371   -3.9457    3.7063 O.2       1 <0>        -0.5013
     11 N3         -0.0237   -5.7979    2.7955 N.am      1 <0>        -0.6606
     12 C8          0.5671   -6.1828    3.9960 C.ar      1 <0>         0.2158
     13 C9          0.9496   -5.2206    4.9254 C.ar      1 <0>        -0.1326
     14 C10         1.5349   -5.5986    6.1160 C.ar      1 <0>        -0.0625
     15 C11         1.7491   -6.9375    6.4006 C.ar      1 <0>        -0.1045
     16 C12         1.3755   -7.9153    5.4878 C.ar      1 <0>         0.0492
     17 C13         0.7730   -7.5398    4.2742 C.ar      1 <0>        -0.1873
     18 C14         0.4694   -8.7574    3.4953 C.2       1 <0>         0.4944
     19 O2         -0.0499   -8.7951    2.3956 O.2       1 <0>        -0.4503
     20 C15         0.9076   -9.9146    4.2866 C.2       1 <0>        -0.3432
     21 C16         1.4838   -9.3947    5.5296 C.2       1 <0>         0.1199
     22 N4          1.8799  -10.4239    6.2366 N.2       1 <0>        -0.2313
     23 H1          1.8188  -12.4994    5.8447 H         1 <0>         0.4499
     24 N5          1.6175  -11.6033    5.5326 N.pl3     1 <0>        -0.4654
     25 C17         1.0129  -11.2978    4.3497 C.2       1 <0>         0.2594
     26 C18         0.5747  -12.2563    3.3182 C.ar      1 <0>        -0.1329
     27 C19        -0.6705  -12.1016    2.7016 C.ar      1 <0>        -0.0106
     28 C20        -1.0761  -12.9980    1.7387 C.ar      1 <0>        -0.2022
     29 C21        -0.2485  -14.0575    1.3792 C.ar      1 <0>         0.2478
     30 C22         0.9917  -14.2145    1.9908 C.ar      1 <0>        -0.2018
     31 C23         1.4061  -13.3185    2.9504 C.ar      1 <0>        -0.0371
     32 N6         -0.6625  -14.9630    0.4052 N.pl3     1 <0>        -0.6241
     33 C24         0.1383  -16.1571    0.0919 C.3       1 <0>         0.0815
     34 C25        -0.7831  -17.3816    0.1330 C.3       1 <0>         0.0453
     35 O3         -1.9202  -17.1431   -0.7000 O.3       1 <0>        -0.3767
     36 C26        -2.7352  -16.0469   -0.2782 C.3       1 <0>         0.0449
     37 C27        -1.9166  -14.7570   -0.3364 C.3       1 <0>         0.0813
     38 H2         -2.3228    1.9436    1.4107 H         1 <0>         0.1244
     39 H3         -3.5738    1.4593    0.2408 H         1 <0>         0.1241
     40 H4         -3.7668    1.0629    1.9653 H         1 <0>         0.1235
     41 H5         -4.0431   -1.2604    1.4048 H         1 <0>         0.1392
     42 H6         -3.8655   -0.8473   -0.3174 H         1 <0>         0.1378
     43 H7         -3.3340   -3.2394    0.0990 H         1 <0>         0.1264
     44 H8         -1.9055   -2.3501   -0.4826 H         1 <0>         0.0640
     45 H9         -0.3942   -2.1018    2.8516 H         1 <0>         0.1389
     46 H10        -0.1778   -1.6815    1.1351 H         1 <0>         0.0588
     47 H11        -0.9300    0.2887    2.4311 H         1 <0>         0.1365
     48 H12        -2.3660   -0.6114    2.9751 H         1 <0>         0.1401
     49 H13        -1.9229   -4.8732    0.9982 H         1 <0>         0.1247
     50 H14        -0.3823   -4.0403    0.6803 H         1 <0>         0.0844
     51 H15         0.0346   -6.3762    2.0189 H         1 <0>         0.4234
     52 H16         0.7880   -4.1740    4.7137 H         1 <0>         0.1547
     53 H17         1.8286   -4.8450    6.8317 H         1 <0>         0.1434
     54 H18         2.2088   -7.2218    7.3356 H         1 <0>         0.1410
     55 H19        -1.3136  -11.2801    2.9807 H         1 <0>         0.1283
     56 H20        -2.0379  -12.8792    1.2620 H         1 <0>         0.1311
     57 H21         1.6313  -15.0380    1.7096 H         1 <0>         0.1315
     58 H22         2.3705  -13.4384    3.4214 H         1 <0>         0.1258
     59 H23         0.5722  -16.0574   -0.9031 H         1 <0>         0.0765
     60 H24         0.9326  -16.2705    0.8297 H         1 <0>         0.0954
     61 H25        -0.2429  -18.2560   -0.2299 H         1 <0>         0.1089
     62 H26        -1.1123  -17.5553    1.1575 H         1 <0>         0.0574
     63 H27        -3.5994  -15.9612   -0.9369 H         1 <0>         0.1083
     64 H28        -3.0715  -16.2157    0.7448 H         1 <0>         0.0570
     65 H29        -2.4824  -13.9437    0.1179 H         1 <0>         0.0955
     66 H30        -1.6931  -14.5140   -1.3752 H         1 <0>         0.0761
     67 H31        -1.6891   -0.0006    0.1846 H         1 <0>         0.4218
@<TRIPOS>BOND
     1    1    2 1
     2    1   38 1
     3    1   39 1
     4    1   40 1
     5    2    7 1
     6    2    3 1
     7    2   67 1
     8    3    4 1
     9    3   41 1
    10    3   42 1
    11    4    5 1
    12    4   43 1
    13    4   44 1
    14    5    6 1
    15    5    8 1
    16    6    7 1
    17    6   45 1
    18    6   46 1
    19    7   47 1
    20    7   48 1
    21    8    9 1
    22    8   49 1
    23    8   50 1
    24    9   10 2
    25    9   11 am
    26   11   12 1
    27   11   51 1
    28   12   17 ar
    29   12   13 ar
    30   13   14 ar
    31   13   52 1
    32   14   15 ar
    33   14   53 1
    34   15   16 ar
    35   15   54 1
    36   16   21 1
    37   16   17 ar
    38   17   18 1
    39   18   19 2
    40   18   20 1
    41   20   21 1
    42   20   25 2
    43   21   22 2
    44   22   24 1
    45   23   24 1
    46   24   25 1
    47   25   26 1
    48   26   31 ar
    49   26   27 ar
    50   27   28 ar
    51   27   55 1
    52   28   29 ar
    53   28   56 1
    54   29   30 ar
    55   29   32 1
    56   30   31 ar
    57   30   57 1
    58   31   58 1
    59   32   37 1
    60   32   33 1
    61   33   34 1
    62   33   59 1
    63   33   60 1
    64   34   35 1
    65   34   61 1
    66   34   62 1
    67   35   36 1
    68   36   37 1
    69   36   63 1
    70   36   64 1
    71   37   65 1
    72   37   66 1
@<TRIPOS>MOLECULE
CHEMBL409892
   39    42     0     0     0
SMALL
USER_CHARGES

@<TRIPOS>ATOM
      1 C1         -0.0168    1.3876    0.0097 C.ar      1 <0>        -0.1625
      2 C2          1.1596    2.0852    0.0022 C.ar      1 <0>        -0.0595
      3 C3          2.3611    1.3601   -0.0132 C.ar      1 <0>        -0.0426
      4 C4          2.3101   -0.0559   -0.0203 C.ar      1 <0>         0.1125
      5 C5          3.5133   -0.7853   -0.0357 C.ar      1 <0>        -0.0460
      6 C6          4.7106   -0.1433   -0.0432 C.ar      1 <0>        -0.1062
      7 C7          4.7869    1.2563   -0.0365 C.ar      1 <0>         0.1556
      8 C8          3.6151    2.0080   -0.0221 C.ar      1 <0>        -0.0662
      9 C9          4.0233    3.4278   -0.0189 C.2       1 <0>        -0.0082
     10 N1          3.2413    4.4862   -0.0049 N.2       1 <0>        -0.1160
     11 N2          3.7565    5.6688   -0.0041 N.pl3     1 <0>        -0.4848
     12 C10         2.9276    6.7908    0.0108 C.ar      1 <0>         0.2258
     13 C11         1.5463    6.6363    0.0305 C.ar      1 <0>        -0.1603
     14 C12         0.7291    7.7492    0.0456 C.ar      1 <0>         0.0142
     15 C13         1.2832    9.0164    0.0407 C.ar      1 <0>        -0.7008
     16 C14         2.6571    9.1740    0.0206 C.ar      1 <0>         0.0185
     17 C15         3.4809    8.0659    0.0117 C.ar      1 <0>        -0.1740
     18 S1          0.2362   10.4334    0.0594 S.o2      1 <0>         2.7046
     19 O1          0.9884   11.5015   -0.4997 O.2       1 <0>        -0.9625
     20 O2         -1.0146   10.0213   -0.4743 O.2       1 <0>        -0.9619
     21 N3         -0.0317   10.8233    1.6464 N.pl3     1 <0>        -1.2502
     22 C16         5.4960    3.4010   -0.0338 C.2       1 <0>         0.5463
     23 O3          6.2319    4.3712   -0.0362 O.2       1 <0>        -0.5147
     24 N4          5.8818    2.1138   -0.0415 N.am      1 <0>        -0.6388
     25 N5          1.1274   -0.6778   -0.0128 N.ar      1 <0>        -0.4646
     26 C17         0.0021   -0.0041    0.0020 C.ar      1 <0>         0.1274
     27 H1         -0.9587    1.9157    0.0260 H         1 <0>         0.1416
     28 H2          1.1638    3.1651    0.0076 H         1 <0>         0.1433
     29 H3          3.4847   -1.8649   -0.0412 H         1 <0>         0.1506
     30 H4          5.6218   -0.7230   -0.0543 H         1 <0>         0.1427
     31 H5          4.7203    5.7780   -0.0137 H         1 <0>         0.4140
     32 H6          1.1129    5.6471    0.0336 H         1 <0>         0.1478
     33 H7         -0.3442    7.6299    0.0609 H         1 <0>         0.1521
     34 H8          3.0863   10.1651    0.0165 H         1 <0>         0.1531
     35 H9          4.5537    8.1898    0.0006 H         1 <0>         0.1427
     36 H10         0.3703   10.2914    2.3510 H         1 <0>         0.4168
     37 H11        -0.5906   11.5834    1.8714 H         1 <0>         0.4218
     38 H12         6.8062    1.8202   -0.0511 H         1 <0>         0.4249
     39 H13        -0.9338   -0.5430    0.0084 H         1 <0>         0.1631
@<TRIPOS>BOND
     1    1   26 ar
     2    1    2 ar
     3    1   27 1
     4    2    3 ar
     5    2   28 1
     6    3    8 ar
     7    3    4 ar
     8    4    5 ar
     9    4   25 ar
    10    5    6 ar
    11    5   29 1
    12    6    7 ar
    13    6   30 1
    14    7   24 1
    15    7    8 ar
    16    8    9 1
    17    9   10 2
    18    9   22 1
    19   10   11 1
    20   11   12 1
    21   11   31 1
    22   12   17 ar
    23   12   13 ar
    24   13   14 ar
    25   13   32 1
    26   14   15 ar
    27   14   33 1
    28   15   16 ar
    29   15   18 1
    30   16   17 ar
    31   16   34 1
    32   17   35 1
    33   18   19 2
    34   18   20 2
    35   18   21 1
    36   21   36 1
    37   21   37 1
    38   22   23 2
    39   22   24 am
    40   24   38 1
    41   25   26 ar
    42   26   39 1
@<TRIPOS>MOLECULE
CHEMBL363172
   36    38     0     0     0
SMALL
USER_CHARGES

@<TRIPOS>ATOM
      1 C1          0.0115    1.2697    0.0075 C.3       1 <0>        -0.1417
      2 C2          0.0469   -0.2597   -0.0139 C.3       1 <0>        -0.0496
      3 C3         -1.3614   -0.7952    0.0166 C.2       1 <0>         0.1688
      4 C4         -2.1026   -1.0979    1.1740 C.2       1 <0>        -0.3352
      5 C5         -3.3579   -1.5671    0.7546 C.2       1 <0>         0.3610
      6 N1         -4.2631   -1.9281    1.6770 N.2       1 <0>        -0.5189
      7 C6         -4.0116   -1.8562    2.9514 C.2       1 <0>         0.4389
      8 N2         -2.8282   -1.4158    3.4485 N.am      1 <0>        -0.6475
      9 C7         -1.8394   -1.0245    2.6110 C.2       1 <0>         0.5788
     10 O1         -0.7701   -0.6263    3.0381 O.2       1 <0>        -0.5095
     11 C8         -5.0845   -2.2814    3.9205 C.3       1 <0>        -0.0820
     12 C9         -6.3602   -2.6269    3.1498 C.3       1 <0>        -0.1360
     13 N3         -3.3480   -1.5385   -0.6059 N.pl3     1 <0>        -0.3165
     14 N4         -2.1035   -1.0520   -1.0258 N.2       1 <0>        -0.2506
     15 C10        -4.4038   -1.9244   -1.4431 C.ar      1 <0>         0.1686
     16 C11        -5.6616   -1.3558   -1.2842 C.ar      1 <0>        -0.0040
     17 C12        -6.7009   -1.7384   -2.1113 C.ar      1 <0>        -0.0868
     18 C13        -6.4898   -2.6870   -3.0964 C.ar      1 <0>        -0.0068
     19 C14        -5.2382   -3.2551   -3.2571 C.ar      1 <0>        -0.0889
     20 C15        -4.1934   -2.8720   -2.4371 C.ar      1 <0>        -0.0035
     21 Cl1        -2.6217   -3.5795   -2.6444 Cl        1 <0>        -0.0150
     22 Cl2        -7.7978   -3.1658   -4.1325 Cl        1 <0>        -0.0300
     23 Cl3        -5.9277   -0.1665   -0.0479 Cl        1 <0>        -0.0168
     24 H1          1.0302    1.6571   -0.0145 H         1 <0>         0.0685
     25 H2         -0.5341    1.6328   -0.8634 H         1 <0>         0.0570
     26 H3         -0.4866    1.6090    0.9157 H         1 <0>         0.0576
     27 H4          0.5451   -0.5989   -0.9221 H         1 <0>         0.0859
     28 H5          0.5926   -0.6227    0.8571 H         1 <0>         0.0966
     29 H6         -4.7468   -3.1567    4.4753 H         1 <0>         0.1070
     30 H7         -5.2893   -1.4673    4.6158 H         1 <0>         0.1043
     31 H8         -6.6834   -1.7593    2.5746 H         1 <0>         0.0656
     32 H9         -6.1619   -3.4581    2.4731 H         1 <0>         0.0675
     33 H10        -7.1440   -2.9095    3.8525 H         1 <0>         0.0647
     34 H11        -7.6788   -1.2968   -1.9883 H         1 <0>         0.1621
     35 H12        -5.0764   -3.9952   -4.0268 H         1 <0>         0.1620
     36 H13        -2.6903   -1.3812    4.4081 H         1 <0>         0.4244
@<TRIPOS>BOND
     1    1    2 1
     2    1   24 1
     3    1   25 1
     4    1   26 1
     5    2    3 1
     6    2   27 1
     7    2   28 1
     8    3   14 2
     9    3    4 1
    10    4    9 1
    11    4    5 2
    12    5    6 1
    13    5   13 1
    14    6    7 2
    15    7    8 1
    16    7   11 1
    17    8    9 am
    18    8   36 1
    19    9   10 2
    20   11   12 1
    21   11   29 1
    22   11   30 1
    23   12   31 1
    24   12   32 1
    25   12   33 1
    26   13   14 1
    27   13   15 1
    28   15   20 ar
    29   15   16 ar
    30   16   17 ar
    31   16   23 1
    32   17   18 ar
    33   17   34 1
    34   18   19 ar
    35   18   22 1
    36   19   20 ar
    37   19   35 1
    38   20   21 1
@<TRIPOS>MOLECULE
CHEMBL440379
   33    36     0     0     0
SMALL
USER_CHARGES

@<TRIPOS>ATOM
      1 C1         -0.0167    1.3800    0.0096 C.ar      1 <0>        -0.0495
      2 C2          1.1941    2.0584    0.0017 C.ar      1 <0>        -0.1746
      3 C3          2.3726    1.3379   -0.0134 C.ar      1 <0>         0.1251
      4 N1          2.3589    0.0192   -0.0208 N.ar      1 <0>        -0.5044
      5 C4          1.2253   -0.6634   -0.0137 C.ar      1 <0>         0.3669
      6 C5          0.0021   -0.0041    0.0020 C.ar      1 <0>        -0.1527
      7 N2          1.2585   -2.0602   -0.0224 N.pl3     1 <0>        -0.2953
      8 C6          2.2604   -2.8273   -0.4917 C.2       1 <0>         0.1979
      9 C7          1.9277   -4.1496   -0.2831 C.2       1 <0>        -0.1866
     10 C8          0.6539   -4.1664    0.2975 C.2       1 <0>         0.0597
     11 N3          0.2545   -2.9159    0.4627 N.2       1 <0>        -0.2603
     12 C9         -0.1114   -5.3745    0.6683 C.2       1 <0>         0.6076
     13 O1          0.3615   -6.4773    0.4731 O.2       1 <0>        -0.5188
     14 N4         -1.3338   -5.2540    1.2229 N.am      1 <0>        -0.8383
     15 C10         2.8431   -5.2956   -0.6141 C.3       1 <0>        -0.0386
     16 C11         3.7254   -4.9892   -1.8246 C.3       1 <0>        -0.0402
     17 C12         4.2686   -3.5862   -1.7623 C.2       1 <0>         0.1111
     18 C13         3.5521   -2.5207   -1.1375 C.2       1 <0>        -0.2058
     19 C14         4.2695   -1.3925   -1.2800 C.2       1 <0>         0.1152
     20 N5          5.4062   -1.7185   -1.9391 N.pl3     1 <0>        -0.4865
     21 H1          6.1201   -1.1064   -2.1769 H         1 <0>         0.4439
     22 N6          5.3758   -3.0940   -2.2189 N.2       1 <0>        -0.2794
     23 H2         -0.9521    1.9196    0.0259 H         1 <0>         0.1486
     24 H3          1.2146    3.1382    0.0070 H         1 <0>         0.1467
     25 H4          3.3174    1.8612   -0.0196 H         1 <0>         0.1709
     26 H5         -0.9214   -0.5640    0.0082 H         1 <0>         0.1498
     27 H6         -1.7111   -4.3741    1.3787 H         1 <0>         0.4084
     28 H7         -1.8363   -6.0472    1.4664 H         1 <0>         0.4100
     29 H8          3.4799   -5.5009    0.2463 H         1 <0>         0.0771
     30 H9          2.2420   -6.1795   -0.8277 H         1 <0>         0.1019
     31 H10         4.5571   -5.6935   -1.8478 H         1 <0>         0.0936
     32 H11         3.1361   -5.1040   -2.7344 H         1 <0>         0.0903
     33 H12         3.9906   -0.4085   -0.9329 H         1 <0>         0.2062
@<TRIPOS>BOND
     1    1    6 ar
     2    1    2 ar
     3    1   23 1
     4    2    3 ar
     5    2   24 1
     6    3    4 ar
     7    3   25 1
     8    4    5 ar
     9    5    6 ar
    10    5    7 1
    11    6   26 1
    12    7   11 1
    13    7    8 1
    14    8   18 1
    15    8    9 2
    16    9   10 1
    17    9   15 1
    18   10   11 2
    19   10   12 1
    20   12   13 2
    21   12   14 am
    22   14   27 1
    23   14   28 1
    24   15   16 1
    25   15   29 1
    26   15   30 1
    27   16   17 1
    28   16   31 1
    29   16   32 1
    30   17   22 2
    31   17   18 1
    32   18   19 2
    33   19   20 1
    34   19   33 1
    35   20   21 1
    36   20   22 1
@<TRIPOS>MOLECULE
CHEMBL440379
   33    36     0     0     0
SMALL
USER_CHARGES

@<TRIPOS>ATOM
      1 C1         -0.0167    1.3800    0.0096 C.ar      1 <0>        -0.0511
      2 C2          1.1941    2.0584    0.0017 C.ar      1 <0>        -0.1740
      3 C3          2.3726    1.3379   -0.0134 C.ar      1 <0>         0.1275
      4 N1          2.3589    0.0192   -0.0204 N.ar      1 <0>        -0.4979
      5 C4          1.2253   -0.6634   -0.0132 C.ar      1 <0>         0.3639
      6 C5          0.0021   -0.0041    0.0020 C.ar      1 <0>        -0.1534
      7 N2          1.2585   -2.0602   -0.0210 N.pl3     1 <0>        -0.2925
      8 C6          2.2609   -2.8275   -0.4896 C.2       1 <0>         0.2031
      9 C7          1.9232   -4.1496   -0.2858 C.2       1 <0>        -0.1992
     10 C8          0.6511   -4.1665    0.2956 C.2       1 <0>         0.0604
     11 N3          0.2541   -2.9153    0.4644 N.2       1 <0>        -0.2604
     12 C9         -0.1153   -5.3744    0.6645 C.2       1 <0>         0.6082
     13 O1          0.3559   -6.4773    0.4663 O.2       1 <0>        -0.5211
     14 N4         -1.3370   -5.2535    1.2208 N.am      1 <0>        -0.8380
     15 C10         2.8406   -5.2910   -0.6294 C.3       1 <0>        -0.0340
     16 C11         3.7241   -4.9543   -1.8323 C.3       1 <0>        -0.0597
     17 C12         4.2489   -3.5470   -1.7483 C.2       1 <0>         0.1288
     18 C13         3.5537   -2.5231   -1.1323 C.2       1 <0>        -0.2054
     19 C14         4.2936   -1.3540   -1.2669 C.2       1 <0>         0.0959
     20 N5          5.3981   -1.6508   -1.9102 N.2       1 <0>        -0.3037
     21 H1          6.0912   -3.5071   -2.6720 H         1 <0>         0.4422
     22 N6          5.3896   -3.0225   -2.2096 N.pl3     1 <0>        -0.4530
     23 H2         -0.9521    1.9196    0.0259 H         1 <0>         0.1479
     24 H3          1.2146    3.1382    0.0070 H         1 <0>         0.1467
     25 H4          3.3173    1.8612   -0.0200 H         1 <0>         0.1723
     26 H5         -0.9214   -0.5640    0.0082 H         1 <0>         0.1487
     27 H6         -1.7130   -4.3735    1.3789 H         1 <0>         0.4089
     28 H7         -1.8402   -6.0466    1.4630 H         1 <0>         0.4100
     29 H8          3.4755   -5.5091    0.2293 H         1 <0>         0.0777
     30 H9          2.2422   -6.1719   -0.8620 H         1 <0>         0.1033
     31 H10         4.5647   -5.6475   -1.8628 H         1 <0>         0.0918
     32 H11         3.1394   -5.0623   -2.7459 H         1 <0>         0.0952
     33 H12         4.0100   -0.3762   -0.9064 H         1 <0>         0.2110
@<TRIPOS>BOND
     1    1    6 ar
     2    1    2 ar
     3    1   23 1
     4    2    3 ar
     5    2   24 1
     6    3    4 ar
     7    3   25 1
     8    4    5 ar
     9    5    6 ar
    10    5    7 1
    11    6   26 1
    12    7   11 1
    13    7    8 1
    14    8    9 2
    15    8   18 1
    16    9   10 1
    17    9   15 1
    18   10   11 2
    19   10   12 1
    20   12   13 2
    21   12   14 am
    22   14   27 1
    23   14   28 1
    24   15   16 1
    25   15   29 1
    26   15   30 1
    27   16   31 1
    28   16   32 1
    29   16   17 1
    30   17   18 2
    31   17   22 1
    32   18   19 1
    33   19   20 2
    34   19   33 1
    35   20   22 1
    36   21   22 1
@<TRIPOS>MOLECULE
CHEMBL271595
   37    40     0     0     0
SMALL
USER_CHARGES

@<TRIPOS>ATOM
      1 C1         -0.0168    1.3850    0.0097 C.ar      1 <0>        -0.1771
      2 C2          1.1706    2.0901    0.0021 C.ar      1 <0>         0.0225
      3 C3          2.3775    1.4151   -0.0130 C.ar      1 <0>        -0.7063
      4 C4          2.3999    0.0323   -0.0211 C.ar      1 <0>         0.0239
      5 C5          1.2162   -0.6790   -0.0141 C.ar      1 <0>        -0.1921
      6 C6          0.0021   -0.0041    0.0020 C.ar      1 <0>         0.2156
      7 N1         -1.1975   -0.7207    0.0101 N.pl3     1 <0>        -0.6280
      8 C7         -1.1773   -2.0826    0.0026 C.2       1 <0>         0.2522
      9 C8         -2.3492   -2.7827    0.0105 C.2       1 <0>        -0.2799
     10 C9         -2.5184   -4.2552    0.0103 C.ar      1 <0>        -0.0224
     11 C10        -3.8992   -4.4897    0.0206 C.ar      1 <0>         0.1578
     12 C11        -4.3562   -5.8080    0.0228 C.ar      1 <0>        -0.1138
     13 C12        -3.4976   -6.8618    0.0152 C.ar      1 <0>        -0.0290
     14 C13        -2.0987   -6.6642    0.0046 C.ar      1 <0>         0.0610
     15 C14        -1.6454   -5.3277    0.0025 C.ar      1 <0>        -0.1242
     16 S1          0.1160   -5.5353   -0.0107 S.3       1 <0>         0.0735
     17 C15         0.1548   -7.2179   -0.0125 C.2       1 <0>         0.0776
     18 N2         -1.0977   -7.5693   -0.0036 N.2       1 <0>        -0.4987
     19 N3         -4.5701   -3.2731    0.0270 N.am      1 <0>        -0.6411
     20 C16        -3.7117   -2.2395    0.0274 C.2       1 <0>         0.5680
     21 O1         -4.0122   -1.0586    0.0375 O.2       1 <0>        -0.5267
     22 S2          3.8900    2.3187   -0.0226 S.o2      1 <0>         2.7045
     23 O2          4.8720    1.4609   -0.5875 O.2       1 <0>        -0.9623
     24 O3          3.5948    3.5990   -0.5638 O.2       1 <0>        -0.9625
     25 N4          4.3255    2.5613    1.5566 N.pl3     1 <0>        -1.2503
     26 H1         -0.9589    1.9128    0.0260 H         1 <0>         0.1429
     27 H2          1.1567    3.1700    0.0077 H         1 <0>         0.1518
     28 H3          3.3441   -0.4918   -0.0333 H         1 <0>         0.1522
     29 H4          1.2344   -1.7589   -0.0212 H         1 <0>         0.1401
     30 H5         -2.0446   -0.2483    0.0210 H         1 <0>         0.4323
     31 H6         -0.2341   -2.6085   -0.0096 H         1 <0>         0.1672
     32 H7         -5.4197   -5.9961    0.0312 H         1 <0>         0.1417
     33 H8         -3.8915   -7.8674    0.0175 H         1 <0>         0.1442
     34 H9          1.0229   -7.8604   -0.0198 H         1 <0>         0.2252
     35 H10        -5.5357   -3.1816    0.0340 H         1 <0>         0.4216
     36 H11         3.7665    2.2195    2.2718 H         1 <0>         0.4168
     37 H12         5.1395    3.0453    1.7664 H         1 <0>         0.4218
@<TRIPOS>BOND
     1    1    6 ar
     2    1    2 ar
     3    1   26 1
     4    2    3 ar
     5    2   27 1
     6    3    4 ar
     7    3   22 1
     8    4    5 ar
     9    4   28 1
    10    5    6 ar
    11    5   29 1
    12    6    7 1
    13    7    8 1
    14    7   30 1
    15    8    9 2
    16    8   31 1
    17    9   20 1
    18    9   10 1
    19   10   15 ar
    20   10   11 ar
    21   11   12 ar
    22   11   19 1
    23   12   13 ar
    24   12   32 1
    25   13   14 ar
    26   13   33 1
    27   14   18 1
    28   14   15 ar
    29   15   16 1
    30   16   17 1
    31   17   18 2
    32   17   34 1
    33   19   20 am
    34   19   35 1
    35   20   21 2
    36   22   23 2
    37   22   24 2
    38   22   25 1
    39   25   36 1
    40   25   37 1
@<TRIPOS>MOLECULE
CHEMBL271595
   37    40     0     0     0
SMALL
USER_CHARGES

@<TRIPOS>ATOM
      1 C1         -0.0180    1.3853    0.0306 C.ar      1 <0>        -0.1778
      2 C2          1.1360    2.1039   -0.2124 C.ar      1 <0>         0.0228
      3 C3          2.2931    1.4490   -0.5926 C.ar      1 <0>        -0.7051
      4 C4          2.2989    0.0730   -0.7313 C.ar      1 <0>         0.0243
      5 C5          1.1484   -0.6517   -0.4903 C.ar      1 <0>        -0.1881
      6 C6         -0.0156    0.0030   -0.1073 C.ar      1 <0>         0.2161
      7 N1         -1.1814   -0.7274    0.1382 N.pl3     1 <0>        -0.6273
      8 C7         -1.1773   -2.0826    0.0026 C.2       1 <0>         0.2517
      9 C8         -2.3437   -2.7832    0.1135 C.2       1 <0>        -0.2810
     10 C9         -3.7219   -2.2388    0.1409 C.ar      1 <0>        -0.0402
     11 C10        -4.5754   -3.3423    0.2661 C.ar      1 <0>         0.1683
     12 C11        -5.9524   -3.1235    0.3180 C.ar      1 <0>        -0.1129
     13 C12        -6.4801   -1.8725    0.2502 C.ar      1 <0>        -0.0269
     14 C13        -5.6507   -0.7358    0.1237 C.ar      1 <0>         0.0616
     15 C14        -4.2594   -0.9664    0.0720 C.ar      1 <0>        -0.1285
     16 S1         -3.6178    0.6797   -0.0840 S.3       1 <0>         0.0338
     17 C15        -5.0841    1.5059   -0.0735 C.2       1 <0>         0.0872
     18 N2         -5.9806    0.5703    0.0415 N.2       1 <0>        -0.4891
     19 N3         -3.8162   -4.5048    0.3158 N.am      1 <0>        -0.6431
     20 C16        -2.5027   -4.2372    0.2246 C.2       1 <0>         0.5795
     21 O1         -1.6019   -5.0578    0.2349 O.2       1 <0>        -0.5097
     22 S2          3.7632    2.3698   -0.9017 S.o2      1 <0>         2.7042
     23 O2          4.5622    1.5794   -1.7713 O.2       1 <0>        -0.9618
     24 O3          3.3537    3.6896   -1.2326 O.2       1 <0>        -0.9623
     25 N4          4.5856    2.4748    0.5319 N.pl3     1 <0>        -1.2502
     26 H1         -0.9201    1.8970    0.3318 H         1 <0>         0.1398
     27 H2          1.1347    3.1786   -0.1057 H         1 <0>         0.1524
     28 H3          3.2042   -0.4353   -1.0287 H         1 <0>         0.1527
     29 H4          1.1534   -1.7261   -0.5994 H         1 <0>         0.1433
     30 H5         -1.9935   -0.2691    0.4053 H         1 <0>         0.4052
     31 H6         -0.2512   -2.6029   -0.1927 H         1 <0>         0.1799
     32 H7         -6.6163   -3.9699    0.4141 H         1 <0>         0.1445
     33 H8         -7.5517   -1.7454    0.2934 H         1 <0>         0.1464
     34 H9         -5.2444    2.5715   -0.1457 H         1 <0>         0.2281
     35 H10        -4.1875   -5.3967    0.4017 H         1 <0>         0.4234
     36 H11         4.2219    2.0625    1.3310 H         1 <0>         0.4168
     37 H12         5.4311    2.9486    0.5724 H         1 <0>         0.4219
@<TRIPOS>BOND
     1    1    6 ar
     2    1    2 ar
     3    1   26 1
     4    2    3 ar
     5    2   27 1
     6    3    4 ar
     7    3   22 1
     8    4    5 ar
     9    4   28 1
    10    5    6 ar
    11    5   29 1
    12    6    7 1
    13    7    8 1
    14    7   30 1
    15    8    9 2
    16    8   31 1
    17    9   20 1
    18    9   10 1
    19   10   15 ar
    20   10   11 ar
    21   11   12 ar
    22   11   19 1
    23   12   13 ar
    24   12   32 1
    25   13   14 ar
    26   13   33 1
    27   14   18 1
    28   14   15 ar
    29   15   16 1
    30   16   17 1
    31   17   18 2
    32   17   34 1
    33   19   20 am
    34   19   35 1
    35   20   21 2
    36   22   23 2
    37   22   24 2
    38   22   25 1
    39   25   36 1
    40   25   37 1
@<TRIPOS>MOLECULE
CHEMBL149096
   35    38     0     0     0
SMALL
USER_CHARGES

@<TRIPOS>ATOM
      1 C1         -0.0129    1.4793   -0.0347 C.3       1 <0>        -0.0740
      2 C2          0.0042   -0.0276   -0.0288 C.2       1 <0>        -0.2030
      3 C3         -1.0553   -0.8716   -0.0187 C.2       1 <0>        -0.1876
      4 C4         -0.8291   -2.2291   -0.0153 C.2       1 <0>        -0.0973
      5 C5          0.5022   -2.6169   -0.0228 C.2       1 <0>        -0.1958
      6 S1          1.3415   -1.0442   -0.0409 S.3       1 <0>         0.2642
      7 C6          1.0713   -3.9682   -0.0213 C.2       1 <0>         0.2794
      8 C7          2.1242   -4.4214    0.7697 C.2       1 <0>        -0.3265
      9 C8          2.3325   -5.8295    0.4197 C.2       1 <0>         0.1307
     10 N1          1.4550   -6.1372   -0.5028 N.2       1 <0>        -0.2293
     11 N2          0.6646   -5.0204   -0.7910 N.pl3     1 <0>        -0.4603
     12 H1         -0.0579   -4.9962   -1.4378 H         1 <0>         0.4499
     13 C9          3.4522   -6.3350    1.2518 C.ar      1 <0>         0.0412
     14 C10         4.0567   -7.5837    1.3256 C.ar      1 <0>        -0.1088
     15 C11         5.1054   -7.8003    2.2036 C.ar      1 <0>        -0.0612
     16 C12         5.5623   -6.7813    3.0145 C.ar      1 <0>        -0.1310
     17 C13         4.9729   -5.5230    2.9576 C.ar      1 <0>         0.2461
     18 C14         3.9113   -5.2909    2.0736 C.ar      1 <0>        -0.1962
     19 C15         3.1082   -4.0816    1.8021 C.2       1 <0>         0.4917
     20 O1          3.2401   -2.9970    2.3388 O.2       1 <0>        -0.4445
     21 N3          5.4366   -4.4969    3.7767 N.am      1 <0>        -0.6766
     22 C16         6.7033   -4.5219    4.2365 C.2       1 <0>         0.7081
     23 O2          7.4715   -5.3836    3.8552 O.2       1 <0>        -0.5703
     24 N4          7.1183   -3.5916    5.1190 N.am      1 <0>        -0.8559
     25 H2          1.0105    1.8542   -0.0480 H         1 <0>         0.0745
     26 H3         -0.5411    1.8332   -0.9200 H         1 <0>         0.0834
     27 H4         -0.5205    1.8403    0.8598 H         1 <0>         0.0838
     28 H5         -2.0636   -0.4845   -0.0130 H         1 <0>         0.1368
     29 H6         -1.6366   -2.9463   -0.0069 H         1 <0>         0.1423
     30 H7          3.7073   -8.3887    0.6961 H         1 <0>         0.1385
     31 H8          5.5691   -8.7744    2.2545 H         1 <0>         0.1431
     32 H9          6.3804   -6.9618    3.6961 H         1 <0>         0.1624
     33 H10         4.8480   -3.7642    4.0165 H         1 <0>         0.4184
     34 H11         6.5054   -2.9040    5.4232 H         1 <0>         0.4022
     35 H12         8.0299   -3.6095    5.4499 H         1 <0>         0.4217
@<TRIPOS>BOND
     1    1    2 1
     2    1   25 1
     3    1   26 1
     4    1   27 1
     5    2    6 1
     6    2    3 2
     7    3    4 1
     8    3   28 1
     9    4    5 2
    10    4   29 1
    11    5    6 1
    12    5    7 1
    13    7   11 1
    14    7    8 2
    15    8   19 1
    16    8    9 1
    17    9   10 2
    18    9   13 1
    19   10   11 1
    20   11   12 1
    21   13   18 ar
    22   13   14 ar
    23   14   15 ar
    24   14   30 1
    25   15   16 ar
    26   15   31 1
    27   16   17 ar
    28   16   32 1
    29   17   18 ar
    30   17   21 1
    31   18   19 1
    32   19   20 2
    33   21   22 am
    34   21   33 1
    35   22   23 2
    36   22   24 am
    37   24   34 1
    38   24   35 1
@<TRIPOS>MOLECULE
CHEMBL149096
   35    38     0     0     0
SMALL
USER_CHARGES

@<TRIPOS>ATOM
      1 C1         -0.0472    1.4759    0.0057 C.3       1 <0>        -0.0731
      2 C2         -0.0160   -0.0308    0.0050 C.2       1 <0>        -0.1368
      3 C3         -1.0546   -0.9065    0.0136 C.2       1 <0>        -0.1722
      4 C4         -0.7928   -2.2580    0.0102 C.2       1 <0>        -0.1064
      5 C5          0.5127   -2.6758   -0.0018 C.2       1 <0>        -0.1181
      6 S1          1.3953   -1.1239   -0.0153 S.3       1 <0>         0.1165
      7 C6          1.0491   -4.0508   -0.0077 C.2       1 <0>         0.2347
      8 C7          2.2205   -4.4872   -0.6754 C.2       1 <0>        -0.3121
      9 C8          2.3587   -5.8456   -0.4197 C.2       1 <0>         0.1626
     10 N1          1.3229   -6.2147    0.3639 N.pl3     1 <0>        -0.4207
     11 N2          0.5267   -5.0913    0.6122 N.2       1 <0>        -0.2592
     12 H1          1.1597   -7.1094    0.7014 H         1 <0>         0.4493
     13 C9          3.5770   -6.3407   -1.1040 C.ar      1 <0>         0.0105
     14 C10         4.1596   -7.5980   -1.1701 C.ar      1 <0>        -0.1101
     15 C11         5.3267   -7.7892   -1.8981 C.ar      1 <0>        -0.0640
     16 C12         5.9191   -6.7376   -2.5611 C.ar      1 <0>        -0.1245
     17 C13         5.3495   -5.4636   -2.5074 C.ar      1 <0>         0.2510
     18 C14         4.1771   -5.2617   -1.7798 C.ar      1 <0>        -0.1967
     19 C15         3.3449   -4.0631   -1.5320 C.2       1 <0>         0.4842
     20 O1          3.5484   -2.9419   -1.9549 O.2       1 <0>        -0.4286
     21 N3          5.9485   -4.4013   -3.1765 N.am      1 <0>        -0.6762
     22 C16         6.7383   -4.6360   -4.2430 C.2       1 <0>         0.7086
     23 O2          6.8459   -5.7642   -4.6832 O.2       1 <0>        -0.5703
     24 N4          7.4088   -3.6201   -4.8217 N.am      1 <0>        -0.8545
     25 H2          0.9726    1.8605   -0.0083 H         1 <0>         0.0743
     26 H3         -0.5807    1.8287   -0.8769 H         1 <0>         0.0836
     27 H4         -0.5562    1.8283    0.9029 H         1 <0>         0.0838
     28 H5         -2.0729   -0.5469    0.0233 H         1 <0>         0.1378
     29 H6         -1.6002   -2.9751    0.0172 H         1 <0>         0.1378
     30 H7          3.7045   -8.4302   -0.6536 H         1 <0>         0.1359
     31 H8          5.7739   -8.7712   -1.9445 H         1 <0>         0.1442
     32 H9          6.8268   -6.8984   -3.1238 H         1 <0>         0.1640
     33 H10         5.7978   -3.4916   -2.8754 H         1 <0>         0.4193
     34 H11         7.3229   -2.7200   -4.4705 H         1 <0>         0.4029
     35 H12         7.9772   -3.7890   -5.5893 H         1 <0>         0.4225
@<TRIPOS>BOND
     1    1    2 1
     2    1   25 1
     3    1   26 1
     4    1   27 1
     5    2    6 1
     6    2    3 2
     7    3    4 1
     8    3   28 1
     9    4    5 2
    10    4   29 1
    11    5    6 1
    12    5    7 1
    13    7    8 1
    14    7   11 2
    15    8   19 1
    16    8    9 2
    17    9   13 1
    18    9   10 1
    19   10   12 1
    20   10   11 1
    21   13   18 ar
    22   13   14 ar
    23   14   15 ar
    24   14   30 1
    25   15   16 ar
    26   15   31 1
    27   16   17 ar
    28   16   32 1
    29   17   18 ar
    30   17   21 1
    31   18   19 1
    32   19   20 2
    33   21   22 am
    34   21   33 1
    35   22   23 2
    36   22   24 am
    37   24   34 1
    38   24   35 1
@<TRIPOS>MOLECULE
CHEMBL82729
   50    53     0     0     0
SMALL
USER_CHARGES

@<TRIPOS>ATOM
      1 C1         -0.6010   -2.0239    2.4511 C.ar      1 <0>        -0.1359
      2 C2          0.0705   -1.8513    3.6433 C.ar      1 <0>        -0.0093
      3 C3          0.4940   -0.5908    4.0266 C.ar      1 <0>        -0.6777
      4 C4          0.2470    0.5049    3.2183 C.ar      1 <0>        -0.0178
      5 C5         -0.4235    0.3475    2.0234 C.ar      1 <0>        -0.1140
      6 C6         -0.8536   -0.9223    1.6297 C.ar      1 <0>         0.0560
      7 N1         -1.5186   -1.0860    0.4458 N.2       1 <0>        -0.1517
      8 N2         -1.0223   -1.8427   -0.4735 N.2       1 <0>        -0.0570
      9 C7          0.1122   -2.5336   -0.2387 C.2       1 <0>        -0.1108
     10 C8          0.3045   -3.9912   -0.3661 C.ar      1 <0>        -0.0656
     11 C9         -0.5287   -5.0406   -0.7321 C.ar      1 <0>         0.0042
     12 C10        -0.0250   -6.3398   -0.7519 C.ar      1 <0>        -0.1490
     13 C11         1.3110   -6.5768   -0.4043 C.ar      1 <0>        -0.0613
     14 C12         2.1291   -5.5457   -0.0449 C.ar      1 <0>        -0.1209
     15 C13         1.6442   -4.2401   -0.0190 C.ar      1 <0>         0.1307
     16 N3          2.2300   -3.0312    0.2970 N.pl3     1 <0>        -0.5747
     17 H1          3.1537   -2.9198    0.5713 H         1 <0>         0.4247
     18 C14         1.3331   -2.0164    0.1648 C.2       1 <0>         0.2997
     19 O1          1.5915   -0.7089    0.3943 O.3       1 <0>        -0.4537
     20 C15        -0.8990   -7.4653   -1.1383 C.2       1 <0>         0.5643
     21 O2         -2.0586   -7.2589   -1.4394 O.2       1 <0>        -0.5280
     22 N4         -0.4112   -8.7216   -1.1572 N.am      1 <0>        -0.7238
     23 C16        -1.2783   -9.8384   -1.5406 C.3       1 <0>         0.1603
     24 C17        -0.4963  -11.1252   -1.4804 C.ar      1 <0>        -0.0666
     25 C18         0.1975  -11.5866   -2.5886 C.ar      1 <0>        -0.1546
     26 C19         0.9036  -12.7710   -2.4959 C.ar      1 <0>         0.0999
     27 N5          0.9216  -13.4594   -1.3713 N.ar      1 <0>        -0.4791
     28 C20         0.2736  -13.0510   -0.2978 C.ar      1 <0>         0.0999
     29 C21        -0.4489  -11.8729   -0.3137 C.ar      1 <0>        -0.1547
     30 S1          1.3512   -0.3799    5.5515 S.o2      1 <0>         2.7010
     31 O3          1.1610    0.9735    5.9405 O.2       1 <0>        -0.9545
     32 O4          0.9776   -1.4710    6.3817 O.2       1 <0>        -0.9559
     33 N6          2.9666   -0.5585    5.2338 N.pl3     1 <0>        -1.2495
     34 H2         -0.9270   -3.0089    2.1511 H         1 <0>         0.1412
     35 H3          0.2662   -2.7018    4.2795 H         1 <0>         0.1527
     36 H4          0.5797    1.4859    3.5241 H         1 <0>         0.1592
     37 H5         -0.6159    1.2035    1.3937 H         1 <0>         0.1541
     38 H6         -1.5580   -4.8514   -0.9987 H         1 <0>         0.1481
     39 H7          1.6971   -7.5853   -0.4206 H         1 <0>         0.1350
     40 H8          3.1571   -5.7428    0.2211 H         1 <0>         0.1368
     41 H9          1.5286   -0.4530    1.3247 H         1 <0>         0.3936
     42 H10         0.5141   -8.8862   -0.9169 H         1 <0>         0.4014
     43 H11        -2.1234   -9.8943   -0.8545 H         1 <0>         0.0848
     44 H12        -1.6440   -9.6826   -2.5555 H         1 <0>         0.0851
     45 H13         0.1860  -11.0277   -3.5126 H         1 <0>         0.1385
     46 H14         1.4466  -13.1373   -3.3546 H         1 <0>         0.1592
     47 H15         0.3114  -13.6418    0.6054 H         1 <0>         0.1592
     48 H16        -0.9734  -11.5412    0.5701 H         1 <0>         0.1383
     49 H17         3.2655   -0.7441    4.3298 H         1 <0>         0.4139
     50 H18         3.6140   -0.4775    5.9516 H         1 <0>         0.4241
@<TRIPOS>BOND
     1    1    6 ar
     2    1    2 ar
     3    1   34 1
     4    2    3 ar
     5    2   35 1
     6    3    4 ar
     7    3   30 1
     8    4    5 ar
     9    4   36 1
    10    5    6 ar
    11    5   37 1
    12    6    7 1
    13    7    8 2
    14    8    9 1
    15    9   18 2
    16    9   10 1
    17   10   15 ar
    18   10   11 ar
    19   11   12 ar
    20   11   38 1
    21   12   13 ar
    22   12   20 1
    23   13   14 ar
    24   13   39 1
    25   14   15 ar
    26   14   40 1
    27   15   16 1
    28   16   17 1
    29   16   18 1
    30   18   19 1
    31   19   41 1
    32   20   21 2
    33   20   22 am
    34   22   23 1
    35   22   42 1
    36   23   24 1
    37   23   43 1
    38   23   44 1
    39   24   29 ar
    40   24   25 ar
    41   25   26 ar
    42   25   45 1
    43   26   27 ar
    44   26   46 1
    45   27   28 ar
    46   28   29 ar
    47   28   47 1
    48   29   48 1
    49   30   31 2
    50   30   32 2
    51   30   33 1
    52   33   49 1
    53   33   50 1
@<TRIPOS>MOLECULE
CHEMBL82729
   50    53     0     0     0
SMALL
USER_CHARGES

@<TRIPOS>ATOM
      1 C1         -0.0169    1.3930    0.0097 C.ar      1 <0>        -0.0974
      2 C2          1.1700    2.0954    0.0021 C.ar      1 <0>        -0.0171
      3 C3          2.3776    1.4198   -0.0130 C.ar      1 <0>        -0.6722
      4 C4          2.4041    0.0363   -0.0212 C.ar      1 <0>        -0.0147
      5 C5          1.2251   -0.6794   -0.0137 C.ar      1 <0>        -0.1412
      6 C6          0.0021   -0.0041    0.0020 C.ar      1 <0>         0.1289
      7 N1         -1.1710   -0.7072    0.0099 N.2       1 <0>        -0.2678
      8 N2         -1.1500   -1.9970    0.0028 N.2       1 <0>        -0.1423
      9 C7         -2.3070   -2.6905    0.0105 C.2       1 <0>        -0.0379
     10 C8         -2.4603   -4.1582    0.0102 C.ar      1 <0>        -0.0583
     11 C9         -1.5612   -5.2170    0.0019 C.ar      1 <0>         0.0047
     12 C10        -2.0431   -6.5245    0.0043 C.ar      1 <0>        -0.1479
     13 C11        -3.4237   -6.7605    0.0150 C.ar      1 <0>        -0.0649
     14 C12        -4.3065   -5.7203    0.0231 C.ar      1 <0>        -0.1180
     15 C13        -3.8443   -4.4062    0.0209 C.ar      1 <0>         0.1229
     16 N3         -4.4915   -3.1873    0.0274 N.pl3     1 <0>        -0.5745
     17 H1         -5.4548   -3.0733    0.0354 H         1 <0>         0.4251
     18 C14        -3.5903   -2.1677    0.0266 C.2       1 <0>         0.3459
     19 O1         -3.8987   -0.8510    0.0366 O.3       1 <0>        -0.4413
     20 C15        -1.0993   -7.6599   -0.0050 C.2       1 <0>         0.5645
     21 O2          0.0989   -7.4544   -0.0146 O.2       1 <0>        -0.5287
     22 N4         -1.5661   -8.9242   -0.0026 N.am      1 <0>        -0.7240
     23 C16        -0.6297  -10.0509   -0.0118 C.3       1 <0>         0.1603
     24 C17        -1.4012  -11.3454   -0.0070 C.ar      1 <0>        -0.0665
     25 C18        -1.7597  -11.9536    1.1864 C.ar      1 <0>        -0.1547
     26 C19        -2.4670  -13.1403    1.1515 C.ar      1 <0>         0.0997
     27 N5         -2.8001  -13.6936    0.0018 N.ar      1 <0>        -0.4792
     28 C20        -2.4761  -13.1435   -1.1521 C.ar      1 <0>         0.0998
     29 C21        -1.7745  -11.9536   -1.1957 C.ar      1 <0>        -0.1547
     30 S1          3.8889    2.3257   -0.0226 S.o2      1 <0>         2.7019
     31 O3          4.8722    1.4693   -0.5874 O.2       1 <0>        -0.9619
     32 O4          3.5919    3.6056   -0.5637 O.2       1 <0>        -0.9623
     33 N6          4.3240    2.5689    1.5566 N.pl3     1 <0>        -1.2498
     34 H2         -0.9586    1.9215    0.0260 H         1 <0>         0.1444
     35 H3          1.1569    3.1753    0.0077 H         1 <0>         0.1505
     36 H4          3.3502   -0.4844   -0.0337 H         1 <0>         0.1464
     37 H5          1.2473   -1.7591   -0.0205 H         1 <0>         0.1458
     38 H6         -0.4978   -5.0284   -0.0067 H         1 <0>         0.1486
     39 H7         -3.7928   -7.7755    0.0164 H         1 <0>         0.1345
     40 H8         -5.3685   -5.9166    0.0310 H         1 <0>         0.1368
     41 H9         -3.9976   -0.4635   -0.8438 H         1 <0>         0.4114
     42 H10        -2.5222   -9.0883    0.0051 H         1 <0>         0.4015
     43 H11        -0.0097  -10.0007   -0.9069 H         1 <0>         0.0849
     44 H12         0.0050  -10.0029    0.8730 H         1 <0>         0.0848
     45 H13        -1.4892  -11.5057    2.1312 H         1 <0>         0.1384
     46 H14        -2.7500  -13.6204    2.0767 H         1 <0>         0.1591
     47 H15        -2.7661  -13.6262   -2.0737 H         1 <0>         0.1592
     48 H16        -1.5164  -11.5054   -2.1439 H         1 <0>         0.1385
     49 H17         3.7655    2.2262    2.2719 H         1 <0>         0.4171
     50 H18         5.1373    3.0540    1.7664 H         1 <0>         0.4215
@<TRIPOS>BOND
     1    1    6 ar
     2    1    2 ar
     3    1   34 1
     4    2    3 ar
     5    2   35 1
     6    3    4 ar
     7    3   30 1
     8    4    5 ar
     9    4   36 1
    10    5    6 ar
    11    5   37 1
    12    6    7 1
    13    7    8 2
    14    8    9 1
    15    9   18 2
    16    9   10 1
    17   10   15 ar
    18   10   11 ar
    19   11   12 ar
    20   11   38 1
    21   12   13 ar
    22   12   20 1
    23   13   14 ar
    24   13   39 1
    25   14   15 ar
    26   14   40 1
    27   15   16 1
    28   16   17 1
    29   16   18 1
    30   18   19 1
    31   19   41 1
    32   20   21 2
    33   20   22 am
    34   22   23 1
    35   22   42 1
    36   23   24 1
    37   23   43 1
    38   23   44 1
    39   24   29 ar
    40   24   25 ar
    41   25   26 ar
    42   25   45 1
    43   26   27 ar
    44   26   46 1
    45   27   28 ar
    46   28   29 ar
    47   28   47 1
    48   29   48 1
    49   30   31 2
    50   30   32 2
    51   30   33 1
    52   33   49 1
    53   33   50 1
@<TRIPOS>MOLECULE
CHEMBL430434
   50    53     0     0     0
SMALL
USER_CHARGES

@<TRIPOS>ATOM
      1 C1         10.2965   -4.9078   -2.6573 C.ar      1 <0>        -0.1729
      2 C2         10.8487   -3.7663   -2.0960 C.ar      1 <0>        -0.0555
      3 C3         10.9795   -3.7059   -0.7173 C.ar      1 <0>        -0.1655
      4 C4         10.5582   -4.7780    0.0468 C.ar      1 <0>         0.1187
      5 N1         10.0379   -5.8480   -0.5213 N.ar      1 <0>        -0.4831
      6 C5          9.8978   -5.9399   -1.8295 C.ar      1 <0>         0.1076
      7 C6         11.5739   -2.4871   -0.0598 C.3       1 <0>         0.1652
      8 N2         10.5086   -1.5297    0.2479 N.am      1 <0>        -0.7231
      9 C7         10.8070   -0.3578    0.8429 C.2       1 <0>         0.5613
     10 O1         11.9603   -0.0951    1.1242 O.2       1 <0>        -0.5247
     11 C8          9.7334    0.6071    1.1531 C.ar      1 <0>        -0.1526
     12 C9          8.4038    0.3028    0.8345 C.ar      1 <0>        -0.0700
     13 C10         7.4022    1.1856    1.1157 C.ar      1 <0>        -0.1187
     14 C11         7.6905    2.4047    1.7251 C.ar      1 <0>         0.1291
     15 C12         9.0219    2.7200    2.0491 C.ar      1 <0>        -0.0947
     16 C13        10.0411    1.8190    1.7682 C.ar      1 <0>        -0.0139
     17 C14         8.9864    4.0577    2.6713 C.2       1 <0>        -0.1224
     18 C15         7.6561    4.4461    2.6773 C.2       1 <0>         0.3433
     19 N3          6.8983    3.4646    2.1170 N.pl3     1 <0>        -0.5758
     20 H1          5.9352    3.5045    2.0079 H         1 <0>         0.4270
     21 O2          7.1850    5.6165    3.1642 O.3       1 <0>        -0.4508
     22 N4         10.0377    4.7611    3.1400 N.2       1 <0>        -0.0718
     23 N5         10.7538    4.2864    4.1023 N.2       1 <0>        -0.1445
     24 C16        10.7452    2.9439    4.3632 C.ar      1 <0>         0.0585
     25 C17         9.6809    2.3720    5.0649 C.ar      1 <0>        -0.1283
     26 C18         9.6788    1.0174    5.3240 C.ar      1 <0>        -0.0078
     27 C19        10.7273    0.2250    4.8908 C.ar      1 <0>        -0.6748
     28 C20        11.7850    0.7846    4.1957 C.ar      1 <0>         0.0112
     29 C21        11.7979    2.1368    3.9244 C.ar      1 <0>        -0.1119
     30 S1         10.7160   -1.5047    5.2265 S.o2      1 <0>         2.6975
     31 O3         12.0702   -1.9338    5.1931 O.2       1 <0>        -0.9556
     32 O4          9.8853   -1.6922    6.3640 O.2       1 <0>        -0.9592
     33 N6          9.9535   -2.2449    3.9564 N.pl3     1 <0>        -1.2455
     34 H2         10.1755   -4.9873   -3.7275 H         1 <0>         0.1385
     35 H3         11.1695   -2.9439   -2.7183 H         1 <0>         0.1368
     36 H4         10.6566   -4.7388    1.1216 H         1 <0>         0.1576
     37 H5          9.4665   -6.8322   -2.2587 H         1 <0>         0.1586
     38 H6         12.0765   -2.7802    0.8619 H         1 <0>         0.0870
     39 H7         12.2940   -2.0249   -0.7351 H         1 <0>         0.0824
     40 H8          9.5885   -1.7393    0.0235 H         1 <0>         0.4002
     41 H9          8.1693   -0.6394    0.3615 H         1 <0>         0.1350
     42 H10         6.3814    0.9384    0.8643 H         1 <0>         0.1361
     43 H11        11.0638    2.0575    2.0207 H         1 <0>         0.1459
     44 H12         7.0923    6.3110    2.4977 H         1 <0>         0.4126
     45 H13         8.8621    2.9893    5.4039 H         1 <0>         0.1316
     46 H14         8.8569    0.5740    5.8666 H         1 <0>         0.1455
     47 H15        12.6002    0.1602    3.8610 H         1 <0>         0.1540
     48 H16        12.6218    2.5714    3.3779 H         1 <0>         0.1455
     49 H17        10.1974   -3.1494    3.7048 H         1 <0>         0.4218
     50 H18         9.2629   -1.7740    3.4642 H         1 <0>         0.4144
@<TRIPOS>BOND
     1    1    6 ar
     2    1    2 ar
     3    1   34 1
     4    2    3 ar
     5    2   35 1
     6    3    4 ar
     7    3    7 1
     8    4    5 ar
     9    4   36 1
    10    5    6 ar
    11    6   37 1
    12    7    8 1
    13    7   38 1
    14    7   39 1
    15    8    9 am
    16    8   40 1
    17    9   10 2
    18    9   11 1
    19   11   16 ar
    20   11   12 ar
    21   12   13 ar
    22   12   41 1
    23   13   14 ar
    24   13   42 1
    25   14   19 1
    26   14   15 ar
    27   15   16 ar
    28   15   17 1
    29   16   43 1
    30   17   18 2
    31   17   22 1
    32   18   19 1
    33   18   21 1
    34   19   20 1
    35   21   44 1
    36   22   23 2
    37   23   24 1
    38   24   29 ar
    39   24   25 ar
    40   25   26 ar
    41   25   45 1
    42   26   27 ar
    43   26   46 1
    44   27   28 ar
    45   27   30 1
    46   28   29 ar
    47   28   47 1
    48   29   48 1
    49   30   31 2
    50   30   32 2
    51   30   33 1
    52   33   49 1
    53   33   50 1
@<TRIPOS>MOLECULE
CHEMBL430434
   50    53     0     0     0
SMALL
USER_CHARGES

@<TRIPOS>ATOM
      1 C1         -0.0167    1.3776    0.0096 C.ar      1 <0>        -0.1735
      2 C2          1.1849    2.0698    0.0019 C.ar      1 <0>        -0.0555
      3 C3          2.3651    1.3426   -0.0133 C.ar      1 <0>        -0.1654
      4 C4          2.3054   -0.0383   -0.0202 C.ar      1 <0>         0.1196
      5 N1          1.1443   -0.6632   -0.0129 N.ar      1 <0>        -0.4845
      6 C5          0.0021   -0.0041    0.0020 C.ar      1 <0>         0.1072
      7 C6          3.6964    2.0488   -0.0227 C.3       1 <0>         0.1667
      8 N2          4.1412    2.2707    1.3554 N.am      1 <0>        -0.7248
      9 C7          5.3142    2.8904    1.5933 C.2       1 <0>         0.5639
     10 O1          6.0031    3.2653    0.6644 O.2       1 <0>        -0.5292
     11 C8          5.7625    3.1140    2.9822 C.ar      1 <0>        -0.1478
     12 C9          4.9721    2.6773    4.0529 C.ar      1 <0>        -0.0649
     13 C10         5.3748    2.8777    5.3411 C.ar      1 <0>        -0.1183
     14 C11         6.5810    3.5212    5.6083 C.ar      1 <0>         0.1226
     15 C12         7.3820    3.9636    4.5406 C.ar      1 <0>        -0.0584
     16 C13         6.9751    3.7547    3.2291 C.ar      1 <0>         0.0045
     17 C14         8.5688    4.5926    5.1520 C.2       1 <0>        -0.0378
     18 C15         8.3998    4.4855    6.5234 C.2       1 <0>         0.3452
     19 N3          7.2240    3.8519    6.7838 N.pl3     1 <0>        -0.5745
     20 H1          6.8849    3.6596    7.6720 H         1 <0>         0.4249
     21 O2          9.2676    4.9388    7.4563 O.3       1 <0>        -0.4410
     22 N4          9.6090    5.1582    4.5059 N.2       1 <0>        -0.1427
     23 N5         10.5830    5.6723    5.1775 N.2       1 <0>        -0.2676
     24 C16        11.6378    6.2458    4.5223 C.ar      1 <0>         0.1278
     25 C17        11.6610    6.2817    3.1258 C.ar      1 <0>        -0.1408
     26 C18        12.7277    6.8620    2.4719 C.ar      1 <0>        -0.0182
     27 C19        13.7733    7.4079    3.1956 C.ar      1 <0>        -0.6735
     28 C20        13.7573    7.3756    4.5789 C.ar      1 <0>        -0.0154
     29 C21        12.6945    6.8036    5.2464 C.ar      1 <0>        -0.0974
     30 S1         15.1318    8.1472    2.3515 S.o2      1 <0>         2.7022
     31 O3         16.2383    8.0983    3.2418 O.2       1 <0>        -0.9616
     32 O4         15.1703    7.5651    1.0558 O.2       1 <0>        -0.9591
     33 N6         14.7645    9.7481    2.1405 N.pl3     1 <0>        -1.2479
     34 H2         -0.9552    1.9117    0.0259 H         1 <0>         0.1389
     35 H3          1.2009    3.1496    0.0072 H         1 <0>         0.1375
     36 H4          3.2203   -0.6121   -0.0320 H         1 <0>         0.1579
     37 H5         -0.9294   -0.5505    0.0083 H         1 <0>         0.1587
     38 H6          4.4293    1.4355   -0.5468 H         1 <0>         0.0842
     39 H7          3.5953    3.0079   -0.5308 H         1 <0>         0.0823
     40 H8          3.5916    1.9716    2.0965 H         1 <0>         0.4008
     41 H9          4.0349    2.1775    3.8570 H         1 <0>         0.1345
     42 H10         4.7554    2.5361    6.1572 H         1 <0>         0.1365
     43 H11         7.5914    4.0894    2.4077 H         1 <0>         0.1486
     44 H12         9.1030    5.8493    7.7371 H         1 <0>         0.4109
     45 H13        10.8458    5.8557    2.5597 H         1 <0>         0.1456
     46 H14        12.7472    6.8902    1.3924 H         1 <0>         0.1459
     47 H15        14.5769    7.8032    5.1373 H         1 <0>         0.1498
     48 H16        12.6812    6.7831    6.3262 H         1 <0>         0.1440
     49 H17        15.4742   10.4088    2.1112 H         1 <0>         0.4220
     50 H18        13.8397   10.0252    2.0461 H         1 <0>         0.4174
@<TRIPOS>BOND
     1    1    6 ar
     2    1    2 ar
     3    1   34 1
     4    2    3 ar
     5    2   35 1
     6    3    4 ar
     7    3    7 1
     8    4    5 ar
     9    4   36 1
    10    5    6 ar
    11    6   37 1
    12    7    8 1
    13    7   38 1
    14    7   39 1
    15    8    9 am
    16    8   40 1
    17    9   10 2
    18    9   11 1
    19   11   16 ar
    20   11   12 ar
    21   12   13 ar
    22   12   41 1
    23   13   14 ar
    24   13   42 1
    25   14   19 1
    26   14   15 ar
    27   15   16 ar
    28   15   17 1
    29   16   43 1
    30   17   18 2
    31   17   22 1
    32   18   19 1
    33   18   21 1
    34   19   20 1
    35   21   44 1
    36   22   23 2
    37   23   24 1
    38   24   29 ar
    39   24   25 ar
    40   25   26 ar
    41   25   45 1
    42   26   27 ar
    43   26   46 1
    44   27   28 ar
    45   27   30 1
    46   28   29 ar
    47   28   47 1
    48   29   48 1
    49   30   31 2
    50   30   32 2
    51   30   33 1
    52   33   49 1
    53   33   50 1
@<TRIPOS>MOLECULE
CHEMBL315411
   40    43     0     0     0
SMALL
USER_CHARGES

@<TRIPOS>ATOM
      1 C1         -2.3594   -4.0780   -2.4803 C.ar      1 <0>        -0.1107
      2 C2         -1.9771   -4.8192   -3.5787 C.ar      1 <0>        -0.0047
      3 C3         -0.8733   -4.4409   -4.3228 C.ar      1 <0>        -0.6701
      4 C4         -0.1455   -3.3176   -3.9713 C.ar      1 <0>        -0.0050
      5 C5         -0.5157   -2.5670   -2.8751 C.ar      1 <0>        -0.1263
      6 C6         -1.6293   -2.9427   -2.1194 C.ar      1 <0>         0.0664
      7 N1         -2.0025   -2.2029   -1.0313 N.2       1 <0>        -0.1601
      8 N2         -1.1978   -2.0754   -0.0312 N.2       1 <0>        -0.0645
      9 C7         -0.0205   -2.7334   -0.0248 C.2       1 <0>        -0.1384
     10 C8          0.1871   -4.1790   -0.2361 C.ar      1 <0>        -0.0777
     11 C9         -0.6706   -5.2445   -0.4869 C.ar      1 <0>        -0.0605
     12 C10        -0.1480   -6.5253   -0.6413 C.ar      1 <0>        -0.0174
     13 C11         1.2328   -6.7329   -0.5437 C.ar      1 <0>        -0.0736
     14 C12         2.0811   -5.6789   -0.2956 C.ar      1 <0>        -0.1058
     15 C13         1.5720   -4.3928   -0.1391 C.ar      1 <0>         0.1136
     16 N3          2.1721   -3.1717    0.1128 N.pl3     1 <0>        -0.5736
     17 H1          3.1261   -3.0370    0.2247 H         1 <0>         0.4269
     18 C14         1.2372   -2.1859    0.1756 C.2       1 <0>         0.3472
     19 O1          1.4939   -0.8774    0.4018 O.3       1 <0>        -0.4541
     20 C15        -1.0505   -7.6655   -0.9077 C.2       1 <0>        -0.0032
     21 C16        -0.6875   -8.9631   -1.0743 C.2       1 <0>        -0.0153
     22 N4         -1.8061   -9.6703   -1.2945 N.2       1 <0>        -0.4821
     23 C17        -2.8285   -8.8622   -1.2690 C.2       1 <0>         0.1791
     24 O2         -2.3955   -7.6172   -1.0263 O.3       1 <0>        -0.1999
     25 S1         -0.3921   -5.3943   -5.7242 S.o2      1 <0>         2.6980
     26 O3          0.9916   -5.1446   -5.9296 O.2       1 <0>        -0.9613
     27 O4         -0.9083   -6.7027   -5.5220 O.2       1 <0>        -0.9576
     28 N5         -1.1856   -4.7701   -7.0369 N.pl3     1 <0>        -1.2494
     29 H2         -3.2236   -4.3718   -1.9031 H         1 <0>         0.1436
     30 H3         -2.5403   -5.6972   -3.8587 H         1 <0>         0.1485
     31 H4          0.7148   -3.0283   -4.5566 H         1 <0>         0.1470
     32 H5          0.0537   -1.6911   -2.6015 H         1 <0>         0.1327
     33 H6         -1.7353   -5.0794   -0.5610 H         1 <0>         0.1318
     34 H7          1.6350   -7.7280   -0.6636 H         1 <0>         0.1431
     35 H8          3.1450   -5.8496   -0.2221 H         1 <0>         0.1398
     36 H9          1.4250   -0.6180    1.3308 H         1 <0>         0.4143
     37 H10         0.3184   -9.3545   -1.0368 H         1 <0>         0.1867
     38 H11        -3.8590   -9.1503   -1.4151 H         1 <0>         0.2529
     39 H12        -1.7827   -4.0135   -6.9281 H         1 <0>         0.4176
     40 H13        -1.0532   -5.1612   -7.9147 H         1 <0>         0.4222
@<TRIPOS>BOND
     1    1    6 ar
     2    1    2 ar
     3    1   29 1
     4    2    3 ar
     5    2   30 1
     6    3    4 ar
     7    3   25 1
     8    4    5 ar
     9    4   31 1
    10    5    6 ar
    11    5   32 1
    12    6    7 1
    13    7    8 2
    14    8    9 1
    15    9   18 2
    16    9   10 1
    17   10   15 ar
    18   10   11 ar
    19   11   12 ar
    20   11   33 1
    21   12   13 ar
    22   12   20 1
    23   13   14 ar
    24   13   34 1
    25   14   15 ar
    26   14   35 1
    27   15   16 1
    28   16   17 1
    29   16   18 1
    30   18   19 1
    31   19   36 1
    32   20   24 1
    33   20   21 2
    34   21   22 1
    35   21   37 1
    36   22   23 2
    37   23   24 1
    38   23   38 1
    39   25   26 2
    40   25   27 2
    41   25   28 1
    42   28   39 1
    43   28   40 1
@<TRIPOS>MOLECULE
CHEMBL315411
   40    43     0     0     0
SMALL
USER_CHARGES

@<TRIPOS>ATOM
      1 C1         -0.0169    1.3930    0.0097 C.ar      1 <0>        -0.0989
      2 C2          1.1700    2.0954    0.0021 C.ar      1 <0>        -0.0162
      3 C3          2.3776    1.4198   -0.0130 C.ar      1 <0>        -0.6737
      4 C4          2.4041    0.0363   -0.0207 C.ar      1 <0>        -0.0144
      5 C5          1.2251   -0.6794   -0.0137 C.ar      1 <0>        -0.1437
      6 C6          0.0021   -0.0041    0.0020 C.ar      1 <0>         0.1315
      7 N1         -1.1710   -0.7072    0.0094 N.2       1 <0>        -0.2729
      8 N2         -1.1500   -1.9970    0.0023 N.2       1 <0>        -0.1417
      9 C7         -2.3069   -2.6904    0.0096 C.2       1 <0>        -0.0452
     10 C8         -2.4594   -4.1582    0.0092 C.ar      1 <0>        -0.0443
     11 C9         -1.5570   -5.2162    0.0011 C.ar      1 <0>        -0.0438
     12 C10        -2.0324   -6.5244    0.0023 C.ar      1 <0>        -0.0218
     13 C11        -3.4108   -6.7668    0.0116 C.ar      1 <0>        -0.0722
     14 C12        -4.3034   -5.7202    0.0196 C.ar      1 <0>        -0.1059
     15 C13        -3.8418   -4.4069    0.0185 C.ar      1 <0>         0.1063
     16 N3         -4.4916   -3.1854    0.0243 N.pl3     1 <0>        -0.5749
     17 H1         -5.4548   -3.0714    0.0311 H         1 <0>         0.4250
     18 C14        -3.5903   -2.1668    0.0252 C.2       1 <0>         0.3516
     19 O1         -3.8979   -0.8498    0.0357 O.3       1 <0>        -0.4419
     20 C15        -1.0821   -7.6569   -0.0067 C.2       1 <0>        -0.0014
     21 C16        -1.3971   -8.9775   -0.0121 C.2       1 <0>        -0.0201
     22 N4         -0.2463   -9.6672   -0.0196 N.2       1 <0>        -0.4860
     23 C17         0.7498   -8.8265   -0.0190 C.2       1 <0>         0.1790
     24 O2          0.2666   -7.5763   -0.0170 O.3       1 <0>        -0.1980
     25 S1          3.8889    2.3257   -0.0232 S.o2      1 <0>         2.7020
     26 O3          4.8721    1.4691   -0.5879 O.2       1 <0>        -0.9624
     27 O4          3.5917    3.6054   -0.5647 O.2       1 <0>        -0.9623
     28 N5          4.3243    2.5694    1.5559 N.pl3     1 <0>        -1.2499
     29 H2         -0.9586    1.9215    0.0260 H         1 <0>         0.1443
     30 H3          1.1569    3.1753    0.0077 H         1 <0>         0.1504
     31 H4          3.3502   -0.4844   -0.0325 H         1 <0>         0.1457
     32 H5          1.2472   -1.7591   -0.0205 H         1 <0>         0.1443
     33 H6         -0.4942   -5.0241   -0.0064 H         1 <0>         0.1396
     34 H7         -3.7764   -7.7831    0.0122 H         1 <0>         0.1421
     35 H8         -5.3651   -5.9179    0.0268 H         1 <0>         0.1393
     36 H9         -3.9960   -0.4618   -0.8445 H         1 <0>         0.4117
     37 H10        -2.3926   -9.3964   -0.0104 H         1 <0>         0.1873
     38 H11         1.7960   -9.0943   -0.0241 H         1 <0>         0.2531
     39 H12         3.7659    2.2270    2.2713 H         1 <0>         0.4171
     40 H13         5.1377    3.0546    1.7654 H         1 <0>         0.4215
@<TRIPOS>BOND
     1    1    6 ar
     2    1    2 ar
     3    1   29 1
     4    2    3 ar
     5    2   30 1
     6    3    4 ar
     7    3   25 1
     8    4    5 ar
     9    4   31 1
    10    5    6 ar
    11    5   32 1
    12    6    7 1
    13    7    8 2
    14    8    9 1
    15    9   18 2
    16    9   10 1
    17   10   15 ar
    18   10   11 ar
    19   11   12 ar
    20   11   33 1
    21   12   13 ar
    22   12   20 1
    23   13   14 ar
    24   13   34 1
    25   14   15 ar
    26   14   35 1
    27   15   16 1
    28   16   17 1
    29   16   18 1
    30   18   19 1
    31   19   36 1
    32   20   24 1
    33   20   21 2
    34   21   22 1
    35   21   37 1
    36   22   23 2
    37   23   24 1
    38   23   38 1
    39   25   26 2
    40   25   27 2
    41   25   28 1
    42   28   39 1
    43   28   40 1
@<TRIPOS>MOLECULE
CHEMBL489245
   40    42     0     0     0
SMALL
USER_CHARGES

@<TRIPOS>ATOM
      1 C1         -0.1280    1.7362   -0.4176 C.3       1 <0>         0.0228
      2 O1          0.0601    0.3390   -0.1844 O.3       1 <0>        -0.3051
      3 C2          0.6450   -0.3798   -1.1798 C.ar      1 <0>         0.1184
      4 C3          1.0345    0.2472   -2.3524 C.ar      1 <0>        -0.1976
      5 C4          1.6293   -0.4848   -3.3631 C.ar      1 <0>        -0.0627
      6 C5          1.8367   -1.8428   -3.2071 C.ar      1 <0>        -0.1423
      7 C6          1.4501   -2.4746   -2.0398 C.ar      1 <0>        -0.0808
      8 C7          0.8590   -1.7455   -1.0205 C.ar      1 <0>         0.0746
      9 O2          0.4835   -2.3644    0.1308 O.3       1 <0>        -0.4834
     10 C8          2.4851   -2.6361   -4.3122 C.3       1 <0>         0.1439
     11 N1          3.9378   -2.6405   -4.1225 N.pl3     1 <0>        -0.6713
     12 C9          4.7359   -3.2983   -5.0036 C.2       1 <0>         0.2927
     13 C10         6.0881   -3.4019   -4.7633 C.2       1 <0>        -0.3463
     14 C11         7.0056   -3.9318   -5.7935 C.ar      1 <0>         0.0687
     15 C12         6.5471   -4.3446   -7.0389 C.ar      1 <0>        -0.1192
     16 C13         7.4445   -4.8317   -7.9681 C.ar      1 <0>        -0.0506
     17 C14         8.7972   -4.9120   -7.6672 C.ar      1 <0>        -0.1224
     18 C15         9.2697   -4.5079   -6.4376 C.ar      1 <0>        -0.0245
     19 C16         8.3795   -4.0115   -5.4845 C.ar      1 <0>        -0.1570
     20 C17         8.8421   -3.5689   -4.1630 C.2       1 <0>         0.5721
     21 O3         10.0258   -3.6349   -3.8909 O.2       1 <0>        -0.5037
     22 N2          7.9803   -3.0922   -3.2500 N.am      1 <0>        -0.6637
     23 C18         6.6615   -2.9835   -3.4789 C.2       1 <0>         0.5829
     24 O4          5.9338   -2.5378   -2.6107 O.2       1 <0>        -0.5372
     25 I1          6.7591   -5.4554   -9.8470 I         1 <0>        -0.0313
     26 H1          0.8387    2.2090   -0.5912 H         1 <0>         0.0583
     27 H2         -0.7632    1.8763   -1.2922 H         1 <0>         0.0580
     28 H3         -0.6029    2.1891    0.4527 H         1 <0>         0.1047
     29 H4          0.8729    1.3078   -2.4771 H         1 <0>         0.1374
     30 H5          1.9324    0.0051   -4.2766 H         1 <0>         0.1319
     31 H6          1.6129   -3.5356   -1.9207 H         1 <0>         0.1393
     32 H7         -0.4200   -2.7085    0.1158 H         1 <0>         0.3889
     33 H8          2.1128   -3.6603   -4.2908 H         1 <0>         0.0882
     34 H9          2.2456   -2.1824   -5.2739 H         1 <0>         0.0893
     35 H10         4.3298   -2.1738   -3.3679 H         1 <0>         0.4260
     36 H11         4.3100   -3.7400   -5.8924 H         1 <0>         0.1646
     37 H12         5.4956   -4.2850   -7.2781 H         1 <0>         0.1350
     38 H13         9.4866   -5.2957   -8.4046 H         1 <0>         0.1377
     39 H14        10.3240   -4.5742   -6.2128 H         1 <0>         0.1471
     40 H15         8.3262   -2.8101   -2.3887 H         1 <0>         0.4164
@<TRIPOS>BOND
     1    1    2 1
     2    1   26 1
     3    1   27 1
     4    1   28 1
     5    2    3 1
     6    3    8 ar
     7    3    4 ar
     8    4    5 ar
     9    4   29 1
    10    5    6 ar
    11    5   30 1
    12    6    7 ar
    13    6   10 1
    14    7    8 ar
    15    7   31 1
    16    8    9 1
    17    9   32 1
    18   10   11 1
    19   10   33 1
    20   10   34 1
    21   11   12 1
    22   11   35 1
    23   12   13 2
    24   12   36 1
    25   13   23 1
    26   13   14 1
    27   14   19 ar
    28   14   15 ar
    29   15   16 ar
    30   15   37 1
    31   16   17 ar
    32   16   25 1
    33   17   18 ar
    34   17   38 1
    35   18   19 ar
    36   18   39 1
    37   19   20 1
    38   20   21 2
    39   20   22 am
    40   22   23 am
    41   22   40 1
    42   23   24 2
@<TRIPOS>MOLECULE
CHEMBL489245
   40    42     0     0     0
SMALL
USER_CHARGES

@<TRIPOS>ATOM
      1 C1         -0.3904    0.5317    0.3897 C.3       1 <0>         0.0225
      2 O1         -0.1290   -0.8729    0.3599 O.3       1 <0>        -0.3041
      3 C2          0.4937   -1.3617   -0.7459 C.ar      1 <0>         0.1204
      4 C3          0.8505   -0.5071   -1.7766 C.ar      1 <0>        -0.1976
      5 C4          1.4840   -1.0055   -2.8997 C.ar      1 <0>        -0.0615
      6 C5          1.7625   -2.3561   -2.9979 C.ar      1 <0>        -0.1497
      7 C6          1.4088   -3.2142   -1.9734 C.ar      1 <0>        -0.0831
      8 C7          0.7792   -2.7202   -0.8422 C.ar      1 <0>         0.0801
      9 O2          0.4360   -3.5621    0.1693 O.3       1 <0>        -0.4812
     10 C8          2.4528   -2.8942   -4.2247 C.3       1 <0>         0.1429
     11 N1          3.9035   -2.8590   -4.0238 N.pl3     1 <0>        -0.6869
     12 C9          4.7359   -3.2983   -5.0036 C.2       1 <0>         0.3096
     13 C10         6.0881   -3.4019   -4.7633 C.2       1 <0>        -0.3523
     14 C11         6.6026   -3.6354   -3.3978 C.ar      1 <0>         0.0615
     15 C12         5.7510   -3.7600   -2.3066 C.ar      1 <0>        -0.1509
     16 C13         6.2806   -3.9785   -1.0505 C.ar      1 <0>        -0.0488
     17 C14         7.6538   -4.0738   -0.8712 C.ar      1 <0>        -0.1247
     18 C15         8.5133   -3.9524   -1.9412 C.ar      1 <0>        -0.0210
     19 C16         7.9984   -3.7321   -3.2193 C.ar      1 <0>        -0.1563
     20 C17         8.8795   -3.5985   -4.3863 C.2       1 <0>         0.5724
     21 O3         10.0841   -3.6814   -4.2387 O.2       1 <0>        -0.5050
     22 N2          8.3778   -3.3866   -5.6140 N.am      1 <0>        -0.6647
     23 C18         7.0606   -3.2897   -5.8566 C.2       1 <0>         0.5901
     24 O4          6.6695   -3.1023   -6.9941 O.2       1 <0>        -0.5273
     25 I1          5.0018   -4.1672    0.5981 I         1 <0>        -0.0225
     26 H1          0.5502    1.0778    0.3178 H         1 <0>         0.0586
     27 H2         -1.0314    0.7999   -0.4501 H         1 <0>         0.0582
     28 H3         -0.8892    0.7887    1.3242 H         1 <0>         0.1048
     29 H4          0.6335    0.5483   -1.7027 H         1 <0>         0.1374
     30 H5          1.7616   -0.3384   -3.7024 H         1 <0>         0.1327
     31 H6          1.6272   -4.2689   -2.0527 H         1 <0>         0.1390
     32 H7         -0.4482   -3.9435    0.0806 H         1 <0>         0.3888
     33 H8          2.1349   -3.9222   -4.3990 H         1 <0>         0.0918
     34 H9          2.1905   -2.2816   -5.0873 H         1 <0>         0.0946
     35 H10         4.2698   -2.5221   -3.1912 H         1 <0>         0.4154
     36 H11         4.3372   -3.5663   -5.9709 H         1 <0>         0.1717
     37 H12         4.6818   -3.6860   -2.4403 H         1 <0>         0.1419
     38 H13         8.0528   -4.2446    0.1178 H         1 <0>         0.1381
     39 H14         9.5802   -4.0280   -1.7916 H         1 <0>         0.1480
     40 H15         8.9938   -3.3040   -6.3587 H         1 <0>         0.4172
@<TRIPOS>BOND
     1    1    2 1
     2    1   26 1
     3    1   27 1
     4    1   28 1
     5    2    3 1
     6    3    8 ar
     7    3    4 ar
     8    4    5 ar
     9    4   29 1
    10    5    6 ar
    11    5   30 1
    12    6    7 ar
    13    6   10 1
    14    7    8 ar
    15    7   31 1
    16    8    9 1
    17    9   32 1
    18   10   11 1
    19   10   33 1
    20   10   34 1
    21   11   12 1
    22   11   35 1
    23   12   13 2
    24   12   36 1
    25   13   23 1
    26   13   14 1
    27   14   19 ar
    28   14   15 ar
    29   15   16 ar
    30   15   37 1
    31   16   17 ar
    32   16   25 1
    33   17   18 ar
    34   17   38 1
    35   18   19 ar
    36   18   39 1
    37   19   20 1
    38   20   21 2
    39   20   22 am
    40   22   23 am
    41   22   40 1
    42   23   24 2
@<TRIPOS>MOLECULE
CHEMBL364338
   39    42     0     0     0
SMALL
USER_CHARGES

@<TRIPOS>ATOM
      1 C1         -0.0165    1.3620    0.0095 C.ar      1 <0>        -0.1461
      2 C2          1.1697    2.0834    0.0021 C.ar      1 <0>        -0.0973
      3 C3          2.3856    1.4362   -0.0134 C.ar      1 <0>        -0.1284
      4 C4          2.4281    0.0456   -0.0212 C.ar      1 <0>         0.1069
      5 C5          1.2234   -0.6807   -0.0132 C.ar      1 <0>        -0.1061
      6 C6          0.0021   -0.0041    0.0020 C.ar      1 <0>        -0.0697
      7 C7          1.6036   -2.0953   -0.0245 C.2       1 <0>        -0.1941
      8 C8          2.9451   -2.1410   -0.0380 C.2       1 <0>         0.0547
      9 N1          3.4551   -0.8713   -0.0363 N.pl3     1 <0>        -0.4740
     10 C9          4.8815   -0.5372   -0.0482 C.3       1 <0>         0.1015
     11 C10         5.3560   -0.3100    1.3640 C.2       1 <0>         0.4820
     12 O1          4.5792   -0.4167    2.2893 O.2       1 <0>        -0.4433
     13 N2          6.6436    0.0116    1.5987 N.am      1 <0>        -0.6226
     14 C11         7.0812    0.2212    2.9013 C.2       1 <0>         0.2615
     15 N3          6.3904    0.1445    4.0181 N.2       1 <0>        -0.5155
     16 C12         6.9570    0.3744    5.1881 C.2       1 <0>         0.0593
     17 C13         8.2752    0.6910    5.1827 C.2       1 <0>        -0.1918
     18 S1          8.6255    0.6275    3.4331 S.3       1 <0>         0.1152
     19 C14         9.1931    1.0049    6.3360 C.3       1 <0>        -0.0216
     20 C15        10.2158    2.1107    6.0260 C.3       1 <0>        -0.1347
     21 C16        11.2420    1.2711    6.8050 C.3       1 <0>        -0.1421
     22 C17        10.3868    0.0425    6.4527 C.3       1 <0>        -0.1333
     23 H1         -0.9613    1.8849    0.0259 H         1 <0>         0.1229
     24 H2          1.1388    3.1630    0.0081 H         1 <0>         0.1245
     25 H3          3.3028    2.0064   -0.0198 H         1 <0>         0.1132
     26 H4         -0.9246   -0.5587    0.0082 H         1 <0>         0.1229
     27 H5          0.9320   -2.9411   -0.0220 H         1 <0>         0.1492
     28 H6          3.5346   -3.0459   -0.0490 H         1 <0>         0.1682
     29 H7          5.4433   -1.3588   -0.4925 H         1 <0>         0.1276
     30 H8          5.0376    0.3686   -0.6341 H         1 <0>         0.1216
     31 H9          7.2648    0.0969    0.8587 H         1 <0>         0.4262
     32 H10         6.3953    0.3134    6.1085 H         1 <0>         0.1742
     33 H11         8.6584    1.1532    7.2742 H         1 <0>         0.1166
     34 H12        10.4461    2.2075    4.9651 H         1 <0>         0.0816
     35 H13         9.9836    3.0651    6.4986 H         1 <0>         0.0755
     36 H14        12.2322    1.2590    6.3495 H         1 <0>         0.0724
     37 H15        11.2683    1.4934    7.8718 H         1 <0>         0.0855
     38 H16        10.2927   -0.6728    7.2698 H         1 <0>         0.0749
     39 H17        10.6639   -0.4261    5.5084 H         1 <0>         0.0823
@<TRIPOS>BOND
     1    1    6 ar
     2    1    2 ar
     3    1   23 1
     4    2    3 ar
     5    2   24 1
     6    3    4 ar
     7    3   25 1
     8    4    9 1
     9    4    5 ar
    10    5    6 ar
    11    5    7 1
    12    6   26 1
    13    7    8 2
    14    7   27 1
    15    8    9 1
    16    8   28 1
    17    9   10 1
    18   10   11 1
    19   10   29 1
    20   10   30 1
    21   11   12 2
    22   11   13 am
    23   13   14 1
    24   13   31 1
    25   14   18 1
    26   14   15 2
    27   15   16 1
    28   16   17 2
    29   16   32 1
    30   17   18 1
    31   17   19 1
    32   19   22 1
    33   19   20 1
    34   19   33 1
    35   20   21 1
    36   20   34 1
    37   20   35 1
    38   21   22 1
    39   21   36 1
    40   21   37 1
    41   22   38 1
    42   22   39 1
@<TRIPOS>MOLECULE
CHEMBL509730
   47    49     0     0     0
SMALL
USER_CHARGES

@<TRIPOS>ATOM
      1 C1         -0.0187    1.5258    0.0104 C.3       1 <0>        -0.1740
      2 C2          0.0021   -0.0041    0.0020 C.3       1 <0>         0.1409
      3 C3          0.7421   -0.5109    1.2415 C.3       1 <0>        -0.1661
      4 N1         -1.3723   -0.5112    0.0124 N.pl3     1 <0>        -0.6990
      5 C4         -2.0661   -0.6457   -1.1706 C.2       1 <0>         0.5208
      6 C5         -1.4792   -0.3143   -2.3591 C.2       1 <0>        -0.3690
      7 C6         -2.2085   -0.4618   -3.5471 C.2       1 <0>         0.5049
      8 N2         -3.4522   -0.9174   -3.5102 N.2       1 <0>        -0.5801
      9 C7         -4.0297   -1.2423   -2.3529 C.2       1 <0>         0.4058
     10 N3         -3.3530   -1.1194   -1.1717 N.pl3     1 <0>        -0.3610
     11 N4         -4.2001   -1.5363   -0.1392 N.2       1 <0>        -0.3181
     12 C8         -5.3478   -1.9081   -0.6386 C.2       1 <0>         0.1653
     13 C9         -5.3091   -1.7382   -2.0364 C.2       1 <0>        -0.2286
     14 C10        -6.3635   -2.0295   -2.9605 C.1       1 <0>         0.3100
     15 N5         -7.2000   -2.2605   -3.6936 N.1       1 <0>        -0.4474
     16 N6         -1.6294   -0.1309   -4.7591 N.pl3     1 <0>        -0.6991
     17 C11        -2.3909   -0.2847   -6.0011 C.3       1 <0>         0.1481
     18 C12        -2.2654   -1.7252   -6.5012 C.3       1 <0>        -0.1293
     19 C13        -3.0608   -1.8859   -7.7983 C.3       1 <0>        -0.1399
     20 C14        -2.5091   -0.9287   -8.8567 C.3       1 <0>         0.0242
     21 C15        -2.6346    0.5118   -8.3567 C.3       1 <0>        -0.1375
     22 C16        -1.8393    0.6725   -7.0596 C.3       1 <0>        -0.1278
     23 N7         -3.2728   -1.0830  -10.1021 N.4       1 <0>        -0.6370
     24 H1          1.0039    1.9031    0.0027 H         1 <0>         0.0773
     25 H2         -0.5459    1.8868   -0.8726 H         1 <0>         0.0622
     26 H3         -0.5289    1.8773    0.9072 H         1 <0>         0.0659
     27 H4          0.5123   -0.3556   -0.8948 H         1 <0>         0.0927
     28 H5          0.2319   -0.1594    2.1383 H         1 <0>         0.0682
     29 H6          0.7568   -1.6008    1.2356 H         1 <0>         0.0674
     30 H7          1.7647   -0.1336    1.2338 H         1 <0>         0.0840
     31 H8         -1.7940   -0.7522    0.8520 H         1 <0>         0.4200
     32 H9         -0.4654    0.0573   -2.3829 H         1 <0>         0.1625
     33 H10        -6.1908   -2.2761   -0.0726 H         1 <0>         0.2089
     34 H11        -0.7191    0.2030   -4.7866 H         1 <0>         0.4162
     35 H12        -3.4400   -0.0549   -5.8149 H         1 <0>         0.1017
     36 H13        -1.2163   -1.9551   -6.6875 H         1 <0>         0.0756
     37 H14        -2.6584   -2.4072   -5.7472 H         1 <0>         0.0930
     38 H15        -2.9714   -2.9122   -8.1546 H         1 <0>         0.0919
     39 H16        -4.1099   -1.6561   -7.6121 H         1 <0>         0.0926
     40 H17        -1.4600   -1.1585   -9.0430 H         1 <0>         0.1429
     41 H18        -2.2416    1.1937   -9.1107 H         1 <0>         0.0947
     42 H19        -3.6837    0.7416   -8.1704 H         1 <0>         0.0928
     43 H20        -1.9287    1.6987   -6.7033 H         1 <0>         0.0935
     44 H21        -0.7902    0.4427   -7.2458 H         1 <0>         0.0818
     45 H22        -4.2439   -0.8702   -9.9297 H         1 <0>         0.4346
     46 H23        -2.9090   -0.4517  -10.8002 H         1 <0>         0.4362
     47 H24        -3.1900   -2.0330  -10.4319 H         1 <0>         0.4372
@<TRIPOS>BOND
     1    1    2 1
     2    1   24 1
     3    1   25 1
     4    1   26 1
     5    2    3 1
     6    2    4 1
     7    2   27 1
     8    3   28 1
     9    3   29 1
    10    3   30 1
    11    4    5 1
    12    4   31 1
    13    5   10 1
    14    5    6 2
    15    6    7 1
    16    6   32 1
    17    7    8 2
    18    7   16 1
    19    8    9 1
    20    9   13 2
    21    9   10 1
    22   10   11 1
    23   11   12 2
    24   12   13 1
    25   12   33 1
    26   13   14 1
    27   14   15 3
    28   16   17 1
    29   16   34 1
    30   17   22 1
    31   17   18 1
    32   17   35 1
    33   18   19 1
    34   18   36 1
    35   18   37 1
    36   19   20 1
    37   19   38 1
    38   19   39 1
    39   20   21 1
    40   20   23 1
    41   20   40 1
    42   21   22 1
    43   21   41 1
    44   21   42 1
    45   22   43 1
    46   22   44 1
    47   23   45 1
    48   23   46 1
    49   23   47 1
@<TRIPOS>MOLECULE
CHEMBL455946
   34    36     0     0     0
SMALL
USER_CHARGES

@<TRIPOS>ATOM
      1 C1         -0.0158    1.3631    0.0095 C.ar      1 <0>        -0.1323
      2 C2          1.1710    2.0847   -0.0080 C.ar      1 <0>        -0.0795
      3 C3          2.3798    1.4470   -0.0308 C.ar      1 <0>        -0.1169
      4 C4          2.4277    0.0566   -0.0367 C.ar      1 <0>         0.0636
      5 C5          1.2229   -0.6731   -0.0189 C.ar      1 <0>        -0.1055
      6 C6          0.0026   -0.0039    0.0041 C.ar      1 <0>        -0.0474
      7 C7          1.6479   -2.0791   -0.0320 C.2       1 <0>        -0.0069
      8 N1          2.9635   -2.0682   -0.0547 N.2       1 <0>        -0.1994
      9 N2          3.4338   -0.8737   -0.0579 N.pl3     1 <0>        -0.4054
     10 H1          4.3793   -0.6574   -0.0738 H         1 <0>         0.4508
     11 C8          0.7745   -3.2659   -0.0215 C.2       1 <0>         0.6141
     12 O1         -0.4341   -3.1314    0.0003 O.2       1 <0>        -0.4996
     13 N3          1.3149   -4.5005   -0.0359 N.am      1 <0>        -0.6650
     14 C9          0.4914   -5.6256    0.0716 C.ar      1 <0>         0.2065
     15 C10         0.9321   -6.7473    0.7621 C.ar      1 <0>        -0.1643
     16 C11         0.1161   -7.8566    0.8668 C.ar      1 <0>        -0.0008
     17 C12        -1.1384   -7.8514    0.2851 C.ar      1 <0>        -0.6939
     18 C13        -1.5802   -6.7362   -0.4030 C.ar      1 <0>         0.0044
     19 C14        -0.7713   -5.6217   -0.5070 C.ar      1 <0>        -0.1439
     20 S1         -2.1761   -9.2690    0.4206 S.o2      1 <0>         2.7041
     21 O2         -3.0818   -9.2153   -0.6730 O.2       1 <0>        -0.9626
     22 O3         -1.3189  -10.3797    0.6461 O.2       1 <0>        -0.9617
     23 N4         -3.0816   -9.0834    1.7946 N.pl3     1 <0>        -1.2483
     24 H2         -0.9604    1.8861    0.0320 H         1 <0>         0.1340
     25 H3          1.1382    3.1642   -0.0039 H         1 <0>         0.1356
     26 H4          3.2947    2.0207   -0.0446 H         1 <0>         0.1320
     27 H5         -0.9228   -0.5605    0.0178 H         1 <0>         0.1399
     28 H6          2.2751   -4.6086   -0.1209 H         1 <0>         0.4223
     29 H7          1.9119   -6.7521    1.2162 H         1 <0>         0.1393
     30 H8          0.4584   -8.7292    1.4032 H         1 <0>         0.1483
     31 H9         -2.5604   -6.7355   -0.8564 H         1 <0>         0.1476
     32 H10        -1.1187   -4.7495   -1.0407 H         1 <0>         0.1518
     33 H11        -3.9694   -9.4707    1.8463 H         1 <0>         0.4218
     34 H12        -2.7241   -8.5875    2.5478 H         1 <0>         0.4173
@<TRIPOS>BOND
     1    1    6 ar
     2    1    2 ar
     3    1   24 1
     4    2    3 ar
     5    2   25 1
     6    3    4 ar
     7    3   26 1
     8    4    9 1
     9    4    5 ar
    10    5    6 ar
    11    5    7 1
    12    6   27 1
    13    7    8 2
    14    7   11 1
    15    8    9 1
    16    9   10 1
    17   11   12 2
    18   11   13 am
    19   13   14 1
    20   13   28 1
    21   14   19 ar
    22   14   15 ar
    23   15   16 ar
    24   15   29 1
    25   16   17 ar
    26   16   30 1
    27   17   18 ar
    28   17   20 1
    29   18   19 ar
    30   18   31 1
    31   19   32 1
    32   20   21 2
    33   20   22 2
    34   20   23 1
    35   23   33 1
    36   23   34 1
@<TRIPOS>MOLECULE
CHEMBL126782
   44    45     0     0     0
SMALL
USER_CHARGES

@<TRIPOS>ATOM
      1 C1         -0.0187    1.5258    0.0104 C.3       1 <0>        -0.1496
      2 C2          0.0021   -0.0041    0.0020 C.3       1 <0>        -0.1074
      3 C3          0.7421   -0.5109    1.2415 C.3       1 <0>        -0.1367
      4 C4         -1.4117   -0.5257    0.0127 C.2       1 <0>         0.5096
      5 O1         -1.7902   -1.2332    0.9222 O.2       1 <0>        -0.4585
      6 N1         -2.2556   -0.2060   -0.9884 N.am      1 <0>        -0.6233
      7 C5         -3.5596   -0.6871   -0.9785 C.2       1 <0>         0.2975
      8 N2         -4.1413   -1.4536   -0.0816 N.2       1 <0>        -0.5378
      9 C6         -5.3999   -1.8282   -0.2173 C.2       1 <0>         0.1810
     10 C7         -6.0586   -1.3879   -1.3174 C.2       1 <0>        -0.6106
     11 S1         -4.7798   -0.4244   -2.1075 S.3       1 <0>         0.1678
     12 S2         -7.7205   -1.6808   -1.8245 S.o       1 <0>         1.4301
     13 O2         -7.6862   -1.5028   -3.2339 O.2       1 <0>        -0.8243
     14 C8         -8.6562   -0.3243   -1.0663 C.3       1 <0>        -0.3756
     15 C9        -10.1136   -0.4569   -1.4259 C.2       1 <0>         0.1932
     16 N3        -11.0075   -1.1112   -0.7407 N.2       1 <0>        -0.4630
     17 C10       -12.1928   -1.0066   -1.3674 C.2       1 <0>        -0.0382
     18 C11       -12.0066   -0.2625   -2.4701 C.2       1 <0>        -0.0236
     19 O3        -10.7046    0.0835   -2.4999 O.3       1 <0>        -0.1917
     20 C12       -13.0574    0.1181   -3.4812 C.3       1 <0>         0.0162
     21 C13       -14.1637    0.9179   -2.7905 C.3       1 <0>        -0.1409
     22 C14       -12.4218    0.9712   -4.5808 C.3       1 <0>        -0.1472
     23 C15       -13.6533   -1.1485   -4.0987 C.3       1 <0>        -0.1419
     24 H1          1.0039    1.9031    0.0027 H         1 <0>         0.0771
     25 H2         -0.5459    1.8868   -0.8726 H         1 <0>         0.0593
     26 H3         -0.5289    1.8773    0.9072 H         1 <0>         0.0650
     27 H4          0.5123   -0.3556   -0.8948 H         1 <0>         0.1060
     28 H5          0.2319   -0.1594    2.1383 H         1 <0>         0.0655
     29 H6          0.7568   -1.6008    1.2356 H         1 <0>         0.0655
     30 H7          1.7647   -0.1336    1.2338 H         1 <0>         0.0693
     31 H8         -1.9529    0.3598   -1.7158 H         1 <0>         0.4281
     32 H9         -5.8832   -2.4576    0.5153 H         1 <0>         0.1923
     33 H10        -8.5439   -0.3665    0.0170 H         1 <0>         0.1591
     34 H11        -8.2765    0.6290   -1.4341 H         1 <0>         0.1168
     35 H12       -13.1260   -1.4426   -1.0428 H         1 <0>         0.1867
     36 H13       -13.7392    1.8203   -2.3505 H         1 <0>         0.0597
     37 H14       -14.9237    1.1932   -3.5217 H         1 <0>         0.0722
     38 H15       -14.6165    0.3101   -2.0071 H         1 <0>         0.0642
     39 H16       -11.6336    0.4014   -5.0728 H         1 <0>         0.0620
     40 H17       -13.1818    1.2465   -5.3120 H         1 <0>         0.0683
     41 H18       -11.9972    1.8736   -4.1408 H         1 <0>         0.0595
     42 H19       -14.1061   -1.7563   -3.3154 H         1 <0>         0.0646
     43 H20       -14.4133   -0.8733   -4.8300 H         1 <0>         0.0722
     44 H21       -12.8651   -1.7184   -4.5908 H         1 <0>         0.0616
@<TRIPOS>BOND
     1    1    2 1
     2    1   24 1
     3    1   25 1
     4    1   26 1
     5    2    3 1
     6    2    4 1
     7    2   27 1
     8    3   28 1
     9    3   29 1
    10    3   30 1
    11    4    5 2
    12    4    6 am
    13    6    7 1
    14    6   31 1
    15    7   11 1
    16    7    8 2
    17    8    9 1
    18    9   10 2
    19    9   32 1
    20   10   11 1
    21   10   12 1
    22   12   13 2
    23   12   14 1
    24   14   15 1
    25   14   33 1
    26   14   34 1
    27   15   19 1
    28   15   16 2
    29   16   17 1
    30   17   18 2
    31   17   35 1
    32   18   19 1
    33   18   20 1
    34   20   21 1
    35   20   22 1
    36   20   23 1
    37   21   36 1
    38   21   37 1
    39   21   38 1
    40   22   39 1
    41   22   40 1
    42   22   41 1
    43   23   42 1
    44   23   43 1
    45   23   44 1
@<TRIPOS>MOLECULE
CHEMBL126782
   44    45     0     0     0
SMALL
USER_CHARGES

@<TRIPOS>ATOM
      1 C1         -0.0187    1.5258    0.0104 C.3       1 <0>        -0.1494
      2 C2          0.0021   -0.0041    0.0020 C.3       1 <0>        -0.1067
      3 C3          0.7421   -0.5109    1.2415 C.3       1 <0>        -0.1375
      4 C4         -1.4117   -0.5257    0.0127 C.2       1 <0>         0.5086
      5 O1         -1.7902   -1.2332    0.9222 O.2       1 <0>        -0.4585
      6 N1         -2.2556   -0.2060   -0.9884 N.am      1 <0>        -0.6228
      7 C5         -3.5596   -0.6871   -0.9785 C.2       1 <0>         0.2957
      8 N2         -4.1413   -1.4536   -0.0816 N.2       1 <0>        -0.5380
      9 C6         -5.3999   -1.8282   -0.2173 C.2       1 <0>         0.1739
     10 C7         -6.0586   -1.3879   -1.3174 C.2       1 <0>        -0.6173
     11 S1         -4.7798   -0.4244   -2.1075 S.3       1 <0>         0.1954
     12 S2         -7.7205   -1.6808   -1.8245 S.o       1 <0>         1.4184
     13 O2         -8.0629   -2.9052   -1.1898 O.2       1 <0>        -0.8103
     14 C8         -8.6562   -0.3243   -1.0663 C.3       1 <0>        -0.3751
     15 C9        -10.1136   -0.4569   -1.4259 C.2       1 <0>         0.1943
     16 N3        -11.0075   -1.1112   -0.7407 N.2       1 <0>        -0.4644
     17 C10       -12.1928   -1.0066   -1.3674 C.2       1 <0>        -0.0369
     18 C11       -12.0066   -0.2625   -2.4701 C.2       1 <0>        -0.0255
     19 O3        -10.7046    0.0835   -2.4999 O.3       1 <0>        -0.1911
     20 C12       -13.0574    0.1181   -3.4812 C.3       1 <0>         0.0179
     21 C13       -14.1637    0.9179   -2.7905 C.3       1 <0>        -0.1421
     22 C14       -12.4218    0.9712   -4.5808 C.3       1 <0>        -0.1464
     23 C15       -13.6533   -1.1485   -4.0987 C.3       1 <0>        -0.1428
     24 H1          1.0039    1.9031    0.0027 H         1 <0>         0.0771
     25 H2         -0.5459    1.8868   -0.8726 H         1 <0>         0.0602
     26 H3         -0.5289    1.8773    0.9072 H         1 <0>         0.0647
     27 H4          0.5123   -0.3556   -0.8948 H         1 <0>         0.1066
     28 H5          0.2319   -0.1594    2.1383 H         1 <0>         0.0651
     29 H6          0.7568   -1.6008    1.2356 H         1 <0>         0.0652
     30 H7          1.7647   -0.1336    1.2338 H         1 <0>         0.0697
     31 H8         -1.9529    0.3598   -1.7158 H         1 <0>         0.4288
     32 H9         -5.8832   -2.4576    0.5153 H         1 <0>         0.1791
     33 H10        -8.5439   -0.3665    0.0170 H         1 <0>         0.1294
     34 H11        -8.2765    0.6290   -1.4341 H         1 <0>         0.1453
     35 H12       -13.1260   -1.4426   -1.0428 H         1 <0>         0.1836
     36 H13       -13.7392    1.8203   -2.3505 H         1 <0>         0.0604
     37 H14       -14.9237    1.1932   -3.5217 H         1 <0>         0.0723
     38 H15       -14.6165    0.3101   -2.0071 H         1 <0>         0.0629
     39 H16       -11.6336    0.4014   -5.0728 H         1 <0>         0.0633
     40 H17       -13.1818    1.2465   -5.3120 H         1 <0>         0.0677
     41 H18       -11.9972    1.8736   -4.1408 H         1 <0>         0.0613
     42 H19       -14.1061   -1.7563   -3.3154 H         1 <0>         0.0632
     43 H20       -14.4133   -0.8733   -4.8300 H         1 <0>         0.0723
     44 H21       -12.8651   -1.7184   -4.5908 H         1 <0>         0.0623
@<TRIPOS>BOND
     1    1    2 1
     2    1   24 1
     3    1   25 1
     4    1   26 1
     5    2    3 1
     6    2    4 1
     7    2   27 1
     8    3   28 1
     9    3   29 1
    10    3   30 1
    11    4    5 2
    12    4    6 am
    13    6    7 1
    14    6   31 1
    15    7   11 1
    16    7    8 2
    17    8    9 1
    18    9   10 2
    19    9   32 1
    20   10   11 1
    21   10   12 1
    22   12   13 2
    23   12   14 1
    24   14   15 1
    25   14   33 1
    26   14   34 1
    27   15   19 1
    28   15   16 2
    29   16   17 1
    30   17   18 2
    31   17   35 1
    32   18   19 1
    33   18   20 1
    34   20   21 1
    35   20   22 1
    36   20   23 1
    37   21   36 1
    38   21   37 1
    39   21   38 1
    40   22   39 1
    41   22   40 1
    42   22   41 1
    43   23   42 1
    44   23   43 1
    45   23   44 1
@<TRIPOS>MOLECULE
CHEMBL435992
   45    46     0     0     0
SMALL
USER_CHARGES

@<TRIPOS>ATOM
      1 C1         -0.0187    1.5258    0.0104 C.3       1 <0>        -0.1377
      2 C2          0.0021   -0.0041    0.0020 C.3       1 <0>        -0.1063
      3 C3          0.7421   -0.5109    1.2415 C.3       1 <0>        -0.1506
      4 C4         -1.4117   -0.5257    0.0127 C.2       1 <0>         0.5089
      5 O1         -2.3441    0.2498    0.0258 O.2       1 <0>        -0.4540
      6 N1         -1.6400   -1.8540    0.0078 N.am      1 <0>        -0.6210
      7 C5         -2.9441   -2.3351    0.0176 C.2       1 <0>         0.3072
      8 N2         -4.0677   -1.6511    0.0262 N.2       1 <0>        -0.5423
      9 C6         -5.2381   -2.2617    0.0351 C.2       1 <0>         0.2254
     10 C7         -5.2259   -3.6173    0.0349 C.2       1 <0>        -0.8329
     11 S1         -3.4689   -3.9342    0.0141 S.3       1 <0>         0.2389
     12 S2         -6.5727   -4.7534    0.0459 S.o2      1 <0>         2.5503
     13 O2         -6.0489   -5.9309    0.6443 O.2       1 <0>        -0.9140
     14 O3         -7.6409   -4.0435    0.6576 O.2       1 <0>        -0.9009
     15 C8         -6.9435   -5.0538   -1.7042 C.3       1 <0>        -0.5120
     16 C9         -8.0927   -6.0223   -1.8152 C.2       1 <0>         0.1650
     17 N3         -9.3535   -5.7002   -1.8710 N.2       1 <0>        -0.4420
     18 C10       -10.0824   -6.8263   -1.9666 C.2       1 <0>        -0.0381
     19 C11        -9.2302   -7.8646   -1.9684 C.2       1 <0>        -0.0090
     20 O4         -7.9855   -7.3562   -1.8785 O.3       1 <0>        -0.1843
     21 C12        -9.5969   -9.3235   -2.0590 C.3       1 <0>         0.0147
     22 C13       -10.3493   -9.5800   -3.3664 C.3       1 <0>        -0.1416
     23 C14        -8.3242  -10.1722   -2.0281 C.3       1 <0>        -0.1490
     24 C15       -10.4896   -9.6995   -0.8747 C.3       1 <0>        -0.1442
     25 H1          1.0039    1.9031    0.0027 H         1 <0>         0.0704
     26 H2         -0.5459    1.8868   -0.8726 H         1 <0>         0.0656
     27 H3         -0.5289    1.8773    0.9072 H         1 <0>         0.0660
     28 H4          0.5123   -0.3556   -0.8948 H         1 <0>         0.1075
     29 H5          1.7647   -0.1336    1.2338 H         1 <0>         0.0782
     30 H6          0.2319   -0.1594    2.1383 H         1 <0>         0.0657
     31 H7          0.7568   -1.6008    1.2356 H         1 <0>         0.0603
     32 H8         -0.8943   -2.4742   -0.0027 H         1 <0>         0.4308
     33 H9         -6.1641   -1.7060    0.0425 H         1 <0>         0.1952
     34 H10        -7.2130   -4.1135   -2.1851 H         1 <0>         0.1755
     35 H11        -6.0654   -5.4741   -2.1947 H         1 <0>         0.1633
     36 H12       -11.1589   -6.8852   -2.0300 H         1 <0>         0.1916
     37 H13        -9.7133   -9.3121   -4.2101 H         1 <0>         0.0610
     38 H14       -10.6145  -10.6352   -3.4319 H         1 <0>         0.0743
     39 H15       -11.2560   -8.9754   -3.3884 H         1 <0>         0.0647
     40 H16        -7.7883   -9.9894   -1.0967 H         1 <0>         0.0645
     41 H17        -8.5895  -11.2274   -2.0936 H         1 <0>         0.0701
     42 H18        -7.6883   -9.9043   -2.8718 H         1 <0>         0.0615
     43 H19       -11.3963   -9.0949   -0.8967 H         1 <0>         0.0653
     44 H20       -10.7548  -10.7547   -0.9402 H         1 <0>         0.0746
     45 H21        -9.9536   -9.5168    0.0567 H         1 <0>         0.0635
@<TRIPOS>BOND
     1    1    2 1
     2    1   25 1
     3    1   26 1
     4    1   27 1
     5    2    3 1
     6    2    4 1
     7    2   28 1
     8    3   29 1
     9    3   30 1
    10    3   31 1
    11    4    5 2
    12    4    6 am
    13    6    7 1
    14    6   32 1
    15    7   11 1
    16    7    8 2
    17    8    9 1
    18    9   10 2
    19    9   33 1
    20   10   11 1
    21   10   12 1
    22   12   13 2
    23   12   14 2
    24   12   15 1
    25   15   16 1
    26   15   34 1
    27   15   35 1
    28   16   20 1
    29   16   17 2
    30   17   18 1
    31   18   19 2
    32   18   36 1
    33   19   20 1
    34   19   21 1
    35   21   22 1
    36   21   23 1
    37   21   24 1
    38   22   37 1
    39   22   38 1
    40   22   39 1
    41   23   40 1
    42   23   41 1
    43   23   42 1
    44   24   43 1
    45   24   44 1
    46   24   45 1
@<TRIPOS>MOLECULE
CHEMBL346831
   35    38     0     0     0
SMALL
USER_CHARGES

@<TRIPOS>ATOM
      1 C1         -0.1680    1.5033   -0.5524 C.3       1 <0>        -0.1747
      2 C2         -0.1539   -0.0035   -0.5703 C.2       1 <0>         0.5156
      3 O1          0.7591   -0.5949   -1.1064 O.2       1 <0>        -0.5204
      4 N1         -1.1558   -0.6938    0.0094 N.am      1 <0>        -0.6713
      5 C3         -1.1919   -2.0808   -0.0878 C.ar      1 <0>         0.2267
      6 C4         -0.0033   -2.8156   -0.0917 C.ar      1 <0>        -0.1151
      7 C5         -0.0390   -4.1882   -0.1884 C.ar      1 <0>        -0.0667
      8 C6         -1.2526   -4.8588   -0.2829 C.ar      1 <0>        -0.1047
      9 C7         -2.4434   -4.1487   -0.2803 C.ar      1 <0>         0.0063
     10 C8         -2.4141   -2.7453   -0.1759 C.ar      1 <0>        -0.1883
     11 C9         -3.8157   -2.2686   -0.1914 C.2       1 <0>         0.4853
     12 O2         -4.1872   -1.1137   -0.1249 O.2       1 <0>        -0.4284
     13 C10        -4.6772   -3.4641   -0.3039 C.2       1 <0>        -0.3087
     14 C11        -3.8587   -4.5831   -0.3669 C.2       1 <0>         0.1613
     15 N2         -4.6631   -5.6633   -0.4746 N.pl3     1 <0>        -0.4213
     16 H1         -4.3681   -6.5859   -0.5270 H         1 <0>         0.4495
     17 N3         -5.9929   -5.2285   -0.4973 N.2       1 <0>        -0.2583
     18 C12        -6.0158   -3.9172   -0.3811 C.2       1 <0>         0.1862
     19 C13        -7.2282   -3.0640   -0.3631 C.ar      1 <0>         0.0149
     20 C14        -7.2722   -1.8947    0.4021 C.ar      1 <0>        -0.1318
     21 C15        -8.4204   -1.1296    0.3897 C.ar      1 <0>         0.1020
     22 N4         -9.4657   -1.4887   -0.3305 N.ar      1 <0>        -0.4763
     23 C16        -9.4655   -2.5839   -1.0660 C.ar      1 <0>         0.0992
     24 C17        -8.3567   -3.4037   -1.1154 C.ar      1 <0>        -0.1411
     25 H2          0.7163    1.8812   -1.0655 H         1 <0>         0.1005
     26 H3         -1.0636    1.8644   -1.0581 H         1 <0>         0.0965
     27 H4         -0.1671    1.8544    0.4796 H         1 <0>         0.0956
     28 H5         -1.8518   -0.2233    0.4943 H         1 <0>         0.4222
     29 H6          0.9457   -2.3053   -0.0191 H         1 <0>         0.1562
     30 H7          0.8840   -4.7488   -0.1911 H         1 <0>         0.1450
     31 H8         -1.2681   -5.9360   -0.3590 H         1 <0>         0.1368
     32 H9         -6.4203   -1.5949    0.9944 H         1 <0>         0.1413
     33 H10        -8.4641   -0.2249    0.9779 H         1 <0>         0.1627
     34 H11       -10.3436   -2.8402   -1.6401 H         1 <0>         0.1621
     35 H12        -8.3620   -4.2966   -1.7230 H         1 <0>         0.1409
@<TRIPOS>BOND
     1    1    2 1
     2    1   25 1
     3    1   26 1
     4    1   27 1
     5    2    3 2
     6    2    4 am
     7    4    5 1
     8    4   28 1
     9    5   10 ar
    10    5    6 ar
    11    6    7 ar
    12    6   29 1
    13    7    8 ar
    14    7   30 1
    15    8    9 ar
    16    8   31 1
    17    9   14 1
    18    9   10 ar
    19   10   11 1
    20   11   12 2
    21   11   13 1
    22   13   18 1
    23   13   14 2
    24   14   15 1
    25   15   16 1
    26   15   17 1
    27   17   18 2
    28   18   19 1
    29   19   24 ar
    30   19   20 ar
    31   20   21 ar
    32   20   32 1
    33   21   22 ar
    34   21   33 1
    35   22   23 ar
    36   23   24 ar
    37   23   34 1
    38   24   35 1
@<TRIPOS>MOLECULE
CHEMBL346831
   35    38     0     0     0
SMALL
USER_CHARGES

@<TRIPOS>ATOM
      1 C1         -0.1649    1.4978    0.5871 C.3       1 <0>        -0.1751
      2 C2         -0.1501   -0.0091    0.5893 C.2       1 <0>         0.5138
      3 O1          0.7667   -0.6058    1.1130 O.2       1 <0>        -0.5174
      4 N1         -1.1558   -0.6938    0.0094 N.am      1 <0>        -0.6685
      5 C3         -1.0869   -2.0804   -0.0906 C.ar      1 <0>         0.2290
      6 C4          0.1493   -2.7208   -0.0925 C.ar      1 <0>        -0.1320
      7 C5          0.2193   -4.0948   -0.1915 C.ar      1 <0>        -0.0606
      8 C6         -0.9360   -4.8543   -0.2908 C.ar      1 <0>        -0.1070
      9 C7         -2.1791   -4.2373   -0.2914 C.ar      1 <0>         0.0372
     10 C8         -2.2597   -2.8374   -0.1840 C.ar      1 <0>        -0.1989
     11 C9         -3.6864   -2.4578   -0.2012 C.2       1 <0>         0.4904
     12 O2         -4.1324   -1.3284   -0.1326 O.2       1 <0>        -0.4407
     13 C10        -4.4701   -3.7004   -0.3176 C.2       1 <0>        -0.3124
     14 C11        -3.5570   -4.7845   -0.3837 C.2       1 <0>         0.1311
     15 N2         -4.2505   -5.8937   -0.4921 N.2       1 <0>        -0.2344
     16 H1         -6.3406   -6.2212   -0.5942 H         1 <0>         0.4518
     17 N3         -5.6143   -5.5826   -0.5200 N.pl3     1 <0>        -0.4510
     18 C12        -5.7497   -4.2322   -0.3978 C.2       1 <0>         0.2173
     19 C13        -7.0183   -3.4746   -0.3815 C.ar      1 <0>        -0.0095
     20 C14        -7.2260   -2.4384    0.5370 C.ar      1 <0>        -0.1235
     21 C15        -8.4258   -1.7571    0.5163 C.ar      1 <0>         0.1081
     22 N4         -9.3681   -2.0705   -0.3519 N.ar      1 <0>        -0.4717
     23 C16        -9.2138   -3.0391   -1.2339 C.ar      1 <0>         0.1054
     24 C17        -8.0440   -3.7689   -1.2879 C.ar      1 <0>        -0.1528
     25 H2          0.7228    1.8706    1.0981 H         1 <0>         0.1007
     26 H3         -0.1711    1.8596   -0.4410 H         1 <0>         0.0958
     27 H4         -1.0571    1.8531    1.1028 H         1 <0>         0.0954
     28 H5         -1.9276   -0.2202   -0.3384 H         1 <0>         0.4224
     29 H6          1.0565   -2.1398   -0.0164 H         1 <0>         0.1600
     30 H7          1.1826   -4.5830   -0.1922 H         1 <0>         0.1437
     31 H8         -0.8685   -5.9294   -0.3682 H         1 <0>         0.1392
     32 H9         -6.4591   -2.1766    1.2509 H         1 <0>         0.1435
     33 H10        -8.5958   -0.9565    1.2209 H         1 <0>         0.1663
     34 H11       -10.0127   -3.2615   -1.9259 H         1 <0>         0.1648
     35 H12        -7.9230   -4.5578   -2.0156 H         1 <0>         0.1392
@<TRIPOS>BOND
     1    1    2 1
     2    1   25 1
     3    1   26 1
     4    1   27 1
     5    2    3 2
     6    2    4 am
     7    4    5 1
     8    4   28 1
     9    5   10 ar
    10    5    6 ar
    11    6    7 ar
    12    6   29 1
    13    7    8 ar
    14    7   30 1
    15    8    9 ar
    16    8   31 1
    17    9   14 1
    18    9   10 ar
    19   10   11 1
    20   11   12 2
    21   11   13 1
    22   13   14 1
    23   13   18 2
    24   14   15 2
    25   15   17 1
    26   16   17 1
    27   17   18 1
    28   18   19 1
    29   19   24 ar
    30   19   20 ar
    31   20   21 ar
    32   20   32 1
    33   21   22 ar
    34   21   33 1
    35   22   23 ar
    36   23   24 ar
    37   23   34 1
    38   24   35 1
@<TRIPOS>MOLECULE
CHEMBL186708
   43    47     0     0     0
SMALL
USER_CHARGES

@<TRIPOS>ATOM
      1 C1          0.0259    1.4677   -0.9800 C.2       1 <0>        -0.1571
      2 C2          1.1888    2.1493   -0.7658 C.2       1 <0>        -0.0259
      3 C3          2.3974    1.4420   -0.7369 C.2       1 <0>         0.0984
      4 C4          3.7345    1.8237   -0.5460 C.2       1 <0>        -0.1981
      5 C5          4.5083    0.6618   -0.6248 C.2       1 <0>         0.0990
      6 N1          3.7166   -0.3615   -0.8470 N.2       1 <0>        -0.2498
      7 N2          2.3925    0.0838   -0.9233 N.pl3     1 <0>        -0.1748
      8 N3          1.1794   -0.5803   -1.1399 N.2       1 <0>        -0.2133
      9 C6          0.0520    0.0824   -1.1669 C.2       1 <0>         0.1195
     10 C7          4.2307    3.1945   -0.3073 C.ar      1 <0>         0.3113
     11 C8          5.6003    3.4363   -0.1381 C.ar      1 <0>        -0.2738
     12 C9          6.0166    4.7344    0.0826 C.ar      1 <0>         0.1952
     13 N4          5.1165    5.7058    0.1276 N.ar      1 <0>        -0.5647
     14 C10         3.8265    5.4500   -0.0356 C.ar      1 <0>         0.5685
     15 N5          3.3830    4.2221   -0.2550 N.ar      1 <0>        -0.5718
     16 N6          2.9193    6.4952    0.0189 N.pl3     1 <0>        -0.6375
     17 C11         3.3766    7.8143    0.1269 C.ar      1 <0>         0.1779
     18 C12         4.5659    8.1885   -0.4845 C.ar      1 <0>        -0.1056
     19 C13         5.0207    9.4903   -0.3803 C.ar      1 <0>        -0.0937
     20 C14         4.2865   10.4206    0.3357 C.ar      1 <0>         0.0467
     21 C15         3.0977   10.0498    0.9479 C.ar      1 <0>         0.0882
     22 C16         2.6372    8.7489    0.8410 C.ar      1 <0>        -0.1474
     23 O1          2.3828   10.9769    1.6492 O.3       1 <0>        -0.3187
     24 C17         2.9821   11.4437    2.8596 C.3       1 <0>         0.0609
     25 C18         3.9579   12.5752    2.5769 C.3       1 <0>        -0.1881
     26 C19         5.1468   12.1198    1.7453 C.3       1 <0>         0.0591
     27 O2          4.7267   11.7091    0.4427 O.3       1 <0>        -0.3180
     28 H1         -0.9148    1.9977   -1.0008 H         1 <0>         0.1613
     29 H2          1.1773    3.2195   -0.6209 H         1 <0>         0.1702
     30 H3          5.5822    0.6141   -0.5204 H         1 <0>         0.2095
     31 H4         -0.8731   -0.4488   -1.3354 H         1 <0>         0.2093
     32 H5          6.3137    2.6265   -0.1789 H         1 <0>         0.1480
     33 H6          7.0651    4.9556    0.2175 H         1 <0>         0.1731
     34 H7          1.9672    6.3135   -0.0178 H         1 <0>         0.4237
     35 H8          5.1371    7.4612   -1.0423 H         1 <0>         0.1439
     36 H9          5.9460    9.7803   -0.8557 H         1 <0>         0.1385
     37 H10         1.7100    8.4607    1.3140 H         1 <0>         0.1368
     38 H11         2.2020   11.8022    3.5312 H         1 <0>         0.1047
     39 H12         3.5150   10.6212    3.3365 H         1 <0>         0.0578
     40 H13         3.4347   13.3671    2.0408 H         1 <0>         0.0844
     41 H14         4.3213   12.9731    3.5243 H         1 <0>         0.0910
     42 H15         5.8550   12.9429    1.6509 H         1 <0>         0.1040
     43 H16         5.6348   11.2831    2.2453 H         1 <0>         0.0574
@<TRIPOS>BOND
     1    1    9 1
     2    1    2 2
     3    1   28 1
     4    2    3 1
     5    2   29 1
     6    3    7 1
     7    3    4 2
     8    4    5 1
     9    4   10 1
    10    5    6 2
    11    5   30 1
    12    6    7 1
    13    7    8 1
    14    8    9 2
    15    9   31 1
    16   10   15 ar
    17   10   11 ar
    18   11   12 ar
    19   11   32 1
    20   12   13 ar
    21   12   33 1
    22   13   14 ar
    23   14   15 ar
    24   14   16 1
    25   16   17 1
    26   16   34 1
    27   17   22 ar
    28   17   18 ar
    29   18   19 ar
    30   18   35 1
    31   19   20 ar
    32   19   36 1
    33   20   27 1
    34   20   21 ar
    35   21   22 ar
    36   21   23 1
    37   22   37 1
    38   23   24 1
    39   24   25 1
    40   24   38 1
    41   24   39 1
    42   25   26 1
    43   25   40 1
    44   25   41 1
    45   26   27 1
    46   26   42 1
    47   26   43 1
@<TRIPOS>MOLECULE
CHEMBL258805
   29    31     0     0     0
SMALL
USER_CHARGES

@<TRIPOS>ATOM
      1 C1         -0.0173    1.4248    0.0099 C.3       1 <0>         0.0271
      2 O1          0.0021   -0.0041    0.0020 O.3       1 <0>        -0.3168
      3 C2          0.6262   -0.6187    1.0421 C.ar      1 <0>         0.1024
      4 C3          1.2032    0.1399    2.0528 C.ar      1 <0>        -0.1700
      5 C4          1.8397   -0.4717    3.1131 C.ar      1 <0>        -0.1033
      6 C5          1.9097   -1.8589    3.1809 C.ar      1 <0>         0.1187
      7 C6          1.3271   -2.6225    2.1613 C.ar      1 <0>        -0.0677
      8 C7          0.6820   -2.0012    1.0972 C.ar      1 <0>        -0.0969
      9 C8          1.5650   -4.0409    2.5138 C.2       1 <0>        -0.1578
     10 C9          1.1745   -5.1562    1.8074 C.2       1 <0>         0.0629
     11 C10         1.4990   -6.4914    2.3101 C.2       1 <0>        -0.0242
     12 C11         1.1789   -7.6923    1.7094 C.2       1 <0>        -0.0034
     13 N1          1.6706   -8.6710    2.5148 N.pl3     1 <0>        -0.5671
     14 C12         2.2724   -8.0713    3.5753 C.2       1 <0>         0.1704
     15 N2          2.1768   -6.7797    3.4526 N.2       1 <0>        -0.4045
     16 C13         2.3091   -4.0004    3.7812 C.2       1 <0>         0.5403
     17 O2          2.7016   -4.9655    4.4121 O.2       1 <0>        -0.4371
     18 N3          2.4808   -2.7116    4.1210 N.am      1 <0>        -0.6639
     19 H1          1.0053    1.8021    0.0021 H         1 <0>         0.0557
     20 H2         -0.5445    1.7859   -0.8732 H         1 <0>         0.1005
     21 H3         -0.5275    1.7763    0.9067 H         1 <0>         0.0556
     22 H4          1.1534    1.2179    2.0080 H         1 <0>         0.1351
     23 H5          2.2852    0.1286    3.8926 H         1 <0>         0.1299
     24 H6          0.2303   -2.5940    0.3156 H         1 <0>         0.1360
     25 H7          0.6287   -5.0455    0.8820 H         1 <0>         0.1494
     26 H8          0.6427   -7.8279    0.7818 H         1 <0>         0.1860
     27 H9          2.7586   -8.5866    4.3905 H         1 <0>         0.2076
     28 H10         2.9440   -2.4136    4.9195 H         1 <0>         0.4133
     29 H11         1.6035   -9.6262    2.3603 H         1 <0>         0.4219
@<TRIPOS>BOND
     1    1    2 1
     2    1   19 1
     3    1   20 1
     4    1   21 1
     5    2    3 1
     6    3    8 ar
     7    3    4 ar
     8    4    5 ar
     9    4   22 1
    10    5    6 ar
    11    5   23 1
    12    6   18 1
    13    6    7 ar
    14    7    8 ar
    15    7    9 1
    16    8   24 1
    17    9   10 2
    18    9   16 1
    19   10   11 1
    20   10   25 1
    21   11   15 1
    22   11   12 2
    23   12   13 1
    24   12   26 1
    25   13   14 1
    26   13   29 1
    27   14   15 2
    28   14   27 1
    29   16   17 2
    30   16   18 am
    31   18   28 1
@<TRIPOS>MOLECULE
CHEMBL258805
   29    31     0     0     0
SMALL
USER_CHARGES

@<TRIPOS>ATOM
      1 C1         -1.9566    1.0673   -1.6379 C.3       1 <0>         0.0261
      2 O1         -1.6466   -0.3067   -1.3968 O.3       1 <0>        -0.3144
      3 C2         -0.5797   -0.8248   -2.0619 C.ar      1 <0>         0.1165
      4 C3          0.1572   -0.0232   -2.9250 C.ar      1 <0>        -0.1777
      5 C4          1.2422   -0.5366   -3.6053 C.ar      1 <0>        -0.0877
      6 C5          1.6102   -1.8665   -3.4331 C.ar      1 <0>         0.0918
      7 C6          0.8662   -2.6737   -2.5624 C.ar      1 <0>        -0.0417
      8 C7         -0.2238   -2.1496   -1.8748 C.ar      1 <0>        -0.1053
      9 C8          1.4958   -4.0128   -2.5942 C.2       1 <0>        -0.2361
     10 C9          1.1090   -5.1392   -1.8956 C.2       1 <0>         0.1124
     11 C10         1.3110   -6.4199   -2.4537 C.2       1 <0>        -0.0634
     12 C11         0.8880   -7.6310   -1.9338 C.2       1 <0>         0.0669
     13 N1          1.2846   -8.5878   -2.7714 N.2       1 <0>        -0.5039
     14 C12         1.9273   -8.0568   -3.7804 C.2       1 <0>         0.2233
     15 N2          1.9667   -6.7191   -3.6343 N.pl3     1 <0>        -0.5332
     16 H1          2.3787   -6.0848   -4.2416 H         1 <0>         0.4302
     17 C13         2.6209   -3.8846   -3.5300 C.2       1 <0>         0.5600
     18 O2          3.3999   -4.7690   -3.8382 O.2       1 <0>        -0.5294
     19 N3          2.6405   -2.6207   -3.9862 N.am      1 <0>        -0.6420
     20 H2         -1.1057    1.6869   -1.3544 H         1 <0>         0.0569
     21 H3         -2.1736    1.2105   -2.6964 H         1 <0>         0.0567
     22 H4         -2.8268    1.3527   -1.0468 H         1 <0>         0.1025
     23 H5         -0.1219    1.0106   -3.0649 H         1 <0>         0.1377
     24 H6          1.8071    0.0961   -4.2738 H         1 <0>         0.1317
     25 H7         -0.7918   -2.7741   -1.2012 H         1 <0>         0.1391
     26 H8          0.6518   -5.0404   -0.9221 H         1 <0>         0.1651
     27 H9          0.3368   -7.7742   -1.0161 H         1 <0>         0.1859
     28 H10         2.3565   -8.6066   -4.6050 H         1 <0>         0.2135
     29 H11         3.2899   -2.2780   -4.6201 H         1 <0>         0.4187
@<TRIPOS>BOND
     1    1    2 1
     2    1   20 1
     3    1   21 1
     4    1   22 1
     5    2    3 1
     6    3    8 ar
     7    3    4 ar
     8    4    5 ar
     9    4   23 1
    10    5    6 ar
    11    5   24 1
    12    6   19 1
    13    6    7 ar
    14    7    8 ar
    15    7    9 1
    16    8   25 1
    17    9   10 2
    18    9   17 1
    19   10   11 1
    20   10   26 1
    21   11   15 1
    22   11   12 2
    23   12   13 1
    24   12   27 1
    25   13   14 2
    26   14   15 1
    27   14   28 1
    28   15   16 1
    29   17   18 2
    30   17   19 am
    31   19   29 1
@<TRIPOS>MOLECULE
CHEMBL570111
   64    68     0     0     0
SMALL
USER_CHARGES

@<TRIPOS>ATOM
      1 C1          0.0799    1.5033    0.0018 C.3       1 <0>        -0.1009
      2 C2          0.0742   -0.0037   -0.0042 C.ar      1 <0>        -0.2405
      3 C3         -0.1463   -0.7056   -1.1749 C.ar      1 <0>         0.1896
      4 N1         -0.1450   -2.0294   -1.1466 N.ar      1 <0>        -0.5553
      5 C4          0.0639   -2.6876   -0.0155 C.ar      1 <0>         0.5589
      6 N2          0.2786   -2.0554    1.1275 N.ar      1 <0>        -0.5536
      7 C5          0.2975   -0.7247    1.1728 C.ar      1 <0>         0.2983
      8 C6          0.5447   -0.0189    2.4520 C.2       1 <0>        -0.1529
      9 C7          0.1308   -0.4387    3.7326 C.2       1 <0>        -0.0513
     10 C8          0.5668    0.5003    4.6228 C.2       1 <0>        -0.0612
     11 N3          1.2342    1.4800    3.9223 N.pl3     1 <0>        -0.5292
     12 H1          1.6470    2.2672    4.3106 H         1 <0>         0.4208
     13 C9          1.2272    1.1671    2.6127 C.2       1 <0>         0.0712
     14 C10         0.3591    0.4709    6.0753 C.2       1 <0>         0.5933
     15 O1         -0.2503   -0.4512    6.5842 O.2       1 <0>        -0.5230
     16 N4          0.8434    1.4653    6.8455 N.am      1 <0>        -0.7198
     17 C11         0.6361    1.4359    8.2954 C.3       1 <0>         0.1936
     18 H2          0.6714    0.4047    8.6467 H         1 <0>         0.1151
     19 C12        -0.7291    2.0414    8.6278 C.3       1 <0>         0.0671
     20 O2         -0.7355    3.4256    8.2730 O.3       1 <0>        -0.5678
     21 C13         1.7187    2.2351    8.9739 C.ar      1 <0>        -0.0799
     22 C14         2.1460    3.4285    8.4216 C.ar      1 <0>        -0.0878
     23 C15         3.1389    4.1620    9.0433 C.ar      1 <0>        -0.1063
     24 C16         3.7055    3.7027   10.2176 C.ar      1 <0>        -0.1060
     25 C17         3.2784    2.5089   10.7706 C.ar      1 <0>        -0.0331
     26 C18         2.2801    1.7779   10.1510 C.ar      1 <0>        -0.0995
     27 Cl1         3.9896    1.9314   12.2452 Cl        1 <0>        -0.0648
     28 N5          0.0571   -4.0729   -0.0296 N.pl3     1 <0>        -0.6372
     29 C19        -0.0448   -4.7591   -1.2435 C.ar      1 <0>         0.1670
     30 C20         0.5353   -4.2289   -2.3857 C.ar      1 <0>        -0.1174
     31 C21         0.4323   -4.9081   -3.5835 C.ar      1 <0>        -0.1010
     32 C22        -0.2489   -6.1073   -3.6370 C.ar      1 <0>        -0.1400
     33 C23        -0.8333   -6.6426   -2.4958 C.ar      1 <0>        -0.0570
     34 C24        -0.7246   -5.9763   -1.2971 C.ar      1 <0>        -0.1040
     35 C25        -1.3136   -6.5081   -0.0169 C.3       1 <0>        -0.0815
     36 C26        -2.3603   -7.5806   -0.3117 C.3       1 <0>        -0.1177
     37 C27        -1.7415   -8.6122   -1.2623 C.3       1 <0>        -0.1203
     38 C28        -1.5673   -7.9510   -2.6322 C.3       1 <0>        -0.0800
     39 H3          1.0906    1.8636   -0.1901 H         1 <0>         0.0691
     40 H4         -0.5908    1.8723   -0.7741 H         1 <0>         0.0695
     41 H5         -0.2560    1.8640    0.9740 H         1 <0>         0.0730
     42 H6         -0.3180   -0.1797   -2.1024 H         1 <0>         0.1692
     43 H7         -0.4261   -1.3342    3.9655 H         1 <0>         0.1549
     44 H8          1.6783    1.7483    1.8220 H         1 <0>         0.1844
     45 H9          1.3291    2.2003    6.4398 H         1 <0>         0.3965
     46 H10        -1.5044    1.5191    8.0673 H         1 <0>         0.0600
     47 H11        -0.9216    1.9392    9.6958 H         1 <0>         0.0600
     48 H12        -1.5719    3.8748    8.4564 H         1 <0>         0.3825
     49 H13         1.7040    3.7874    7.5039 H         1 <0>         0.1284
     50 H14         3.4722    5.0941    8.6114 H         1 <0>         0.1343
     51 H15         4.4818    4.2756   10.7029 H         1 <0>         0.1349
     52 H16         1.9431    0.8480   10.5846 H         1 <0>         0.1358
     53 H17         0.1229   -4.5667    0.8027 H         1 <0>         0.4219
     54 H18         1.0649   -3.2888   -2.3388 H         1 <0>         0.1323
     55 H19         0.8835   -4.5017   -4.4767 H         1 <0>         0.1232
     56 H20        -0.3287   -6.6350   -4.5759 H         1 <0>         0.1199
     57 H21        -0.5192   -6.9391    0.5924 H         1 <0>         0.0735
     58 H22        -1.7817   -5.6899    0.5304 H         1 <0>         0.0708
     59 H23        -2.6573   -8.0686    0.6166 H         1 <0>         0.0678
     60 H24        -3.2312   -7.1241   -0.7819 H         1 <0>         0.0658
     61 H25        -0.7745   -8.9340   -0.8756 H         1 <0>         0.0666
     62 H26        -2.4054   -9.4718   -1.3537 H         1 <0>         0.0679
     63 H27        -2.5428   -7.7705   -3.0839 H         1 <0>         0.0773
     64 H28        -0.9933   -8.6201   -3.2733 H         1 <0>         0.0744
@<TRIPOS>BOND
     1    1    2 1
     2    1   39 1
     3    1   40 1
     4    1   41 1
     5    2    7 ar
     6    2    3 ar
     7    3    4 ar
     8    3   42 1
     9    4    5 ar
    10    5    6 ar
    11    5   28 1
    12    6    7 ar
    13    7    8 1
    14    8   13 2
    15    8    9 1
    16    9   10 2
    17    9   43 1
    18   10   11 1
    19   10   14 1
    20   11   12 1
    21   11   13 1
    22   13   44 1
    23   14   15 2
    24   14   16 am
    25   16   17 1
    26   16   45 1
    27   17   18 1
    28   17   19 1
    29   17   21 1
    30   19   20 1
    31   19   46 1
    32   19   47 1
    33   20   48 1
    34   21   26 ar
    35   21   22 ar
    36   22   23 ar
    37   22   49 1
    38   23   24 ar
    39   23   50 1
    40   24   25 ar
    41   24   51 1
    42   25   26 ar
    43   25   27 1
    44   26   52 1
    45   28   29 1
    46   28   53 1
    47   29   34 ar
    48   29   30 ar
    49   30   31 ar
    50   30   54 1
    51   31   32 ar
    52   31   55 1
    53   32   33 ar
    54   32   56 1
    55   33   38 1
    56   33   34 ar
    57   34   35 1
    58   35   36 1
    59   35   57 1
    60   35   58 1
    61   36   37 1
    62   36   59 1
    63   36   60 1
    64   37   38 1
    65   37   61 1
    66   37   62 1
    67   38   63 1
    68   38   64 1
@<TRIPOS>MOLECULE
CHEMBL185255
   54    58     0     0     0
SMALL
USER_CHARGES

@<TRIPOS>ATOM
      1 C1          0.0260    1.4178    0.0142 C.3       1 <0>         0.0237
      2 O1          0.0487   -0.0110    0.0042 O.3       1 <0>        -0.3116
      3 C2          0.6430   -0.6107   -1.0592 C.ar      1 <0>         0.1525
      4 C3          1.1984    0.1641   -2.0702 C.ar      1 <0>        -0.2104
      5 C4          1.8023   -0.4401   -3.1509 C.ar      1 <0>        -0.0509
      6 C5          1.8563   -1.8344   -3.2293 C.ar      1 <0>        -0.1022
      7 C6          1.2967   -2.6098   -2.2099 C.ar      1 <0>        -0.0252
      8 C7          0.6991   -1.9973   -1.1305 C.ar      1 <0>        -0.1501
      9 C8          2.5015   -2.4860   -4.3849 C.2       1 <0>         0.2440
     10 C9          2.0027   -3.5603   -5.1088 C.2       1 <0>        -0.3329
     11 C10         2.9866   -3.8530   -6.1543 C.2       1 <0>         0.1279
     12 N1          3.9675   -2.9954   -6.0177 N.2       1 <0>        -0.2332
     13 N2          3.6955   -2.1415   -4.9443 N.pl3     1 <0>        -0.4652
     14 H1          4.2679   -1.4183   -4.6438 H         1 <0>         0.4487
     15 C11         2.4732   -5.0009   -6.9425 C.ar      1 <0>         0.0436
     16 C12         2.9993   -5.6788   -8.0348 C.ar      1 <0>        -0.1069
     17 C13         2.3079   -6.7387   -8.5977 C.ar      1 <0>        -0.0590
     18 C14         1.0906   -7.1342   -8.0821 C.ar      1 <0>        -0.1299
     19 C15         0.5444   -6.4707   -6.9884 C.ar      1 <0>         0.2421
     20 C16         1.2339   -5.3971   -6.4101 C.ar      1 <0>        -0.1955
     21 C17         0.9050   -4.5241   -5.2652 C.2       1 <0>         0.4948
     22 O2         -0.0953   -4.5908   -4.5757 O.2       1 <0>        -0.4508
     23 N3         -0.6839   -6.8719   -6.4704 N.am      1 <0>        -0.6758
     24 C18        -1.1102   -8.1377   -6.6508 C.2       1 <0>         0.7158
     25 O3         -0.3801   -8.9561   -7.1753 O.2       1 <0>        -0.5448
     26 N4         -2.3460   -8.4961   -6.2498 N.am      1 <0>        -0.5173
     27 N5         -3.1875   -7.5530   -5.6455 N.am      1 <0>        -0.5330
     28 C19        -4.4233   -7.9114   -5.2445 C.2       1 <0>         0.5670
     29 O4         -4.8079   -9.0533   -5.4072 O.2       1 <0>        -0.5078
     30 C20        -5.3093   -6.9182   -4.6080 C.ar      1 <0>        -0.1659
     31 C21        -4.8736   -5.6036   -4.4243 C.ar      1 <0>        -0.0697
     32 C22        -5.7061   -4.6806   -3.8296 C.ar      1 <0>        -0.1332
     33 C23        -6.9746   -5.0500   -3.4125 C.ar      1 <0>        -0.0686
     34 C24        -7.4178   -6.3457   -3.5880 C.ar      1 <0>        -0.1541
     35 C25        -6.5951   -7.2865   -4.1896 C.ar      1 <0>         0.1776
     36 O5         -7.0313   -8.5586   -4.3678 O.3       1 <0>        -0.4776
     37 H2          1.0475    1.7976   -0.0030 H         1 <0>         0.0588
     38 H3         -0.5107    1.7788   -0.8632 H         1 <0>         0.0591
     39 H4         -0.4763    1.7669    0.9164 H         1 <0>         0.1046
     40 H5          1.1563    1.2415   -2.0088 H         1 <0>         0.1368
     41 H6          2.2331    0.1629   -3.9366 H         1 <0>         0.1291
     42 H7          1.3363   -3.6876   -2.2665 H         1 <0>         0.1378
     43 H8          0.2698   -2.5956   -0.3405 H         1 <0>         0.1409
     44 H9          3.9510   -5.3779   -8.4471 H         1 <0>         0.1395
     45 H10         2.7246   -7.2596   -9.4471 H         1 <0>         0.1446
     46 H11         0.5599   -7.9616   -8.5295 H         1 <0>         0.1627
     47 H12        -1.2329   -6.2405   -5.9796 H         1 <0>         0.4112
     48 H13        -2.6529   -9.4071   -6.3797 H         1 <0>         0.4501
     49 H14        -2.8806   -6.6420   -5.5156 H         1 <0>         0.4195
     50 H15        -3.8854   -5.3112   -4.7476 H         1 <0>         0.1285
     51 H16        -5.3682   -3.6647   -3.6877 H         1 <0>         0.1361
     52 H17        -7.6204   -4.3202   -2.9470 H         1 <0>         0.1358
     53 H18        -8.4080   -6.6260   -3.2602 H         1 <0>         0.1402
     54 H19        -6.8364   -9.1486   -3.6268 H         1 <0>         0.3989
@<TRIPOS>BOND
     1    1    2 1
     2    1   37 1
     3    1   38 1
     4    1   39 1
     5    2    3 1
     6    3    8 ar
     7    3    4 ar
     8    4    5 ar
     9    4   40 1
    10    5    6 ar
    11    5   41 1
    12    6    7 ar
    13    6    9 1
    14    7    8 ar
    15    7   42 1
    16    8   43 1
    17    9   13 1
    18    9   10 2
    19   10   21 1
    20   10   11 1
    21   11   12 2
    22   11   15 1
    23   12   13 1
    24   13   14 1
    25   15   20 ar
    26   15   16 ar
    27   16   17 ar
    28   16   44 1
    29   17   18 ar
    30   17   45 1
    31   18   19 ar
    32   18   46 1
    33   19   20 ar
    34   19   23 1
    35   20   21 1
    36   21   22 2
    37   23   24 am
    38   23   47 1
    39   24   25 2
    40   24   26 am
    41   26   27 1
    42   26   48 1
    43   27   28 am
    44   27   49 1
    45   28   29 2
    46   28   30 1
    47   30   35 ar
    48   30   31 ar
    49   31   32 ar
    50   31   50 1
    51   32   33 ar
    52   32   51 1
    53   33   34 ar
    54   33   52 1
    55   34   35 ar
    56   34   53 1
    57   35   36 1
    58   36   54 1
@<TRIPOS>MOLECULE
CHEMBL185255
   54    58     0     0     0
SMALL
USER_CHARGES

@<TRIPOS>ATOM
      1 C1          0.0009    1.4491   -0.0344 C.3       1 <0>         0.0248
      2 O1          0.0198    0.0202   -0.0305 O.3       1 <0>        -0.3146
      3 C2          0.6172   -0.5916   -1.0862 C.ar      1 <0>         0.1445
      4 C3          1.1786    0.1709   -2.1019 C.ar      1 <0>        -0.2132
      5 C4          1.7855   -0.4469   -3.1747 C.ar      1 <0>        -0.0418
      6 C5          1.8353   -1.8391   -3.2389 C.ar      1 <0>        -0.0735
      7 C6          1.2705   -2.6020   -2.2172 C.ar      1 <0>        -0.0351
      8 C7          0.6700   -1.9780   -1.1444 C.ar      1 <0>        -0.1527
      9 C8          2.4866   -2.5065   -4.3908 C.2       1 <0>         0.2022
     10 C9          3.2255   -3.7128   -4.3460 C.2       1 <0>        -0.3141
     11 C10         3.6575   -3.9800   -5.6384 C.2       1 <0>         0.1591
     12 N1          3.2021   -2.9834   -6.4279 N.pl3     1 <0>        -0.4234
     13 N2          2.4755   -2.0853   -5.6384 N.2       1 <0>        -0.2701
     14 H1          3.3505   -2.9054   -7.3833 H         1 <0>         0.4476
     15 C11         4.4382   -5.2406   -5.6325 C.ar      1 <0>         0.0130
     16 C12         5.0806   -5.9398   -6.6434 C.ar      1 <0>        -0.1086
     17 C13         5.7543   -7.1204   -6.3569 C.ar      1 <0>        -0.0614
     18 C14         5.7927   -7.6104   -5.0707 C.ar      1 <0>        -0.1241
     19 C15         5.1524   -6.9219   -4.0377 C.ar      1 <0>         0.2474
     20 C16         4.4740   -5.7358   -4.3156 C.ar      1 <0>        -0.1964
     21 C17         3.7138   -4.7928   -3.4646 C.2       1 <0>         0.4881
     22 O2          3.5268   -4.8890   -2.2677 O.2       1 <0>        -0.4379
     23 N3          5.1913   -7.4170   -2.7386 N.am      1 <0>        -0.6755
     24 C18         6.1992   -8.2255   -2.3554 C.2       1 <0>         0.7162
     25 O3          7.1272   -8.4399   -3.1109 O.2       1 <0>        -0.5450
     26 N4          6.1783   -8.7964   -1.1347 N.am      1 <0>        -0.5161
     27 N5          5.1088   -8.5494   -0.2641 N.am      1 <0>        -0.5336
     28 C19         5.0879   -9.1202    0.9566 C.2       1 <0>         0.5675
     29 O4          5.9972   -9.8497    1.3023 O.2       1 <0>        -0.5074
     30 C20         3.9617   -8.8601    1.8735 C.ar      1 <0>        -0.1666
     31 C21         2.9120   -8.0272    1.4782 C.ar      1 <0>        -0.0698
     32 C22         1.8628   -7.7886    2.3390 C.ar      1 <0>        -0.1327
     33 C23         1.8436   -8.3711    3.5959 C.ar      1 <0>        -0.0680
     34 C24         2.8744   -9.1961    3.9992 C.ar      1 <0>        -0.1541
     35 C25         3.9359   -9.4516    3.1437 C.ar      1 <0>         0.1776
     36 O5          4.9467  -10.2665    3.5364 O.3       1 <0>        -0.4778
     37 H2          1.0235    1.8259   -0.0510 H         1 <0>         0.0577
     38 H3         -0.5311    1.8030   -0.9174 H         1 <0>         0.0578
     39 H4         -0.5042    1.8082    0.8623 H         1 <0>         0.1024
     40 H5          1.1394    1.2490   -2.0517 H         1 <0>         0.1338
     41 H6          2.2217    0.1467   -3.9645 H         1 <0>         0.1312
     42 H7          1.3071   -3.6803   -2.2642 H         1 <0>         0.1358
     43 H8          0.2364   -2.5681   -0.3506 H         1 <0>         0.1374
     44 H9          5.0568   -5.5656   -7.6563 H         1 <0>         0.1367
     45 H10         6.2520   -7.6587   -7.1499 H         1 <0>         0.1455
     46 H11         6.3190   -8.5297   -4.8601 H         1 <0>         0.1642
     47 H12         4.4930   -7.1803   -2.1083 H         1 <0>         0.4119
     48 H13         6.9037   -9.3784   -0.8590 H         1 <0>         0.4506
     49 H14         4.3834   -7.9674   -0.5398 H         1 <0>         0.4195
     50 H15         2.9230   -7.5707    0.4995 H         1 <0>         0.1283
     51 H16         1.0520   -7.1443    2.0326 H         1 <0>         0.1371
     52 H17         1.0175   -8.1783    4.2643 H         1 <0>         0.1362
     53 H18         2.8523   -9.6465    4.9806 H         1 <0>         0.1402
     54 H19         5.6712   -9.8074    3.9829 H         1 <0>         0.3989
@<TRIPOS>BOND
     1    1    2 1
     2    1   37 1
     3    1   38 1
     4    1   39 1
     5    2    3 1
     6    3    8 ar
     7    3    4 ar
     8    4    5 ar
     9    4   40 1
    10    5    6 ar
    11    5   41 1
    12    6    7 ar
    13    6    9 1
    14    7    8 ar
    15    7   42 1
    16    8   43 1
    17    9   10 1
    18    9   13 2
    19   10   21 1
    20   10   11 2
    21   11   15 1
    22   11   12 1
    23   12   14 1
    24   12   13 1
    25   15   20 ar
    26   15   16 ar
    27   16   17 ar
    28   16   44 1
    29   17   18 ar
    30   17   45 1
    31   18   19 ar
    32   18   46 1
    33   19   20 ar
    34   19   23 1
    35   20   21 1
    36   21   22 2
    37   23   24 am
    38   23   47 1
    39   24   25 2
    40   24   26 am
    41   26   27 1
    42   26   48 1
    43   27   28 am
    44   27   49 1
    45   28   29 2
    46   28   30 1
    47   30   35 ar
    48   30   31 ar
    49   31   32 ar
    50   31   50 1
    51   32   33 ar
    52   32   51 1
    53   33   34 ar
    54   33   52 1
    55   34   35 ar
    56   34   53 1
    57   35   36 1
    58   36   54 1
@<TRIPOS>MOLECULE
CHEMBL357770
   52    56     0     0     0
SMALL
USER_CHARGES

@<TRIPOS>ATOM
      1 C1          0.0265    1.4356   -0.0087 C.3       1 <0>         0.0238
      2 O1          0.0364    0.0067   -0.0131 O.3       1 <0>        -0.3118
      3 C2          0.6375   -0.6024   -1.0675 C.ar      1 <0>         0.1513
      4 C3          1.2113    0.1635   -2.0750 C.ar      1 <0>        -0.2104
      5 C4          1.8216   -0.4501   -3.1466 C.ar      1 <0>        -0.0519
      6 C5          1.8636   -1.8452   -3.2195 C.ar      1 <0>        -0.1005
      7 C6          1.2855   -2.6116   -2.2037 C.ar      1 <0>        -0.0252
      8 C7          0.6818   -1.9896   -1.1331 C.ar      1 <0>        -0.1499
      9 C8          2.5157   -2.5069   -4.3655 C.2       1 <0>         0.2402
     10 C9          2.0151   -3.5792   -5.0911 C.2       1 <0>        -0.3308
     11 C10         3.0083   -3.8854   -6.1238 C.2       1 <0>         0.1277
     12 N1          3.9957   -3.0366   -5.9790 N.2       1 <0>        -0.2356
     13 N2          3.7189   -2.1754   -4.9126 N.pl3     1 <0>        -0.4662
     14 H1          4.2945   -1.4564   -4.6084 H         1 <0>         0.4479
     15 C11         2.4931   -5.0314   -6.9136 C.ar      1 <0>         0.0383
     16 C12         3.0251   -5.7181   -7.9975 C.ar      1 <0>        -0.1065
     17 C13         2.3301   -6.7735   -8.5646 C.ar      1 <0>        -0.0653
     18 C14         1.1034   -7.1556   -8.0615 C.ar      1 <0>        -0.1220
     19 C15         0.5507   -6.4825   -6.9769 C.ar      1 <0>         0.2389
     20 C16         1.2439   -5.4137   -6.3942 C.ar      1 <0>        -0.1883
     21 C17         0.9099   -4.5329   -5.2568 C.2       1 <0>         0.4903
     22 O2         -0.0987   -4.5878   -4.5785 O.2       1 <0>        -0.4392
     23 N3         -0.6875   -6.8697   -6.4721 N.am      1 <0>        -0.6642
     24 C18        -1.6428   -7.3253   -7.3065 C.2       1 <0>         0.7345
     25 O3         -1.3970   -7.4759   -8.4876 O.2       1 <0>        -0.5687
     26 N4         -2.8707   -7.6139   -6.8316 N.am      1 <0>        -0.5832
     27 N5         -3.1469   -7.4446   -5.5046 N.3       1 <0>        -0.3066
     28 C19        -3.4661   -8.7292   -4.8649 C.3       1 <0>        -0.0039
     29 C20        -3.7098   -8.5024   -3.3705 C.3       1 <0>         0.0661
     30 O4         -4.7545   -7.5401   -3.2037 O.3       1 <0>        -0.3809
     31 C21        -4.4766   -6.2769   -3.8140 C.3       1 <0>         0.0659
     32 C22        -4.2407   -6.4812   -5.3128 C.3       1 <0>         0.0002
     33 H2          1.0516    1.8061   -0.0156 H         1 <0>         0.0585
     34 H3         -0.4968    1.7981   -0.8935 H         1 <0>         0.0589
     35 H4         -0.4829    1.7926    0.8864 H         1 <0>         0.1043
     36 H5          1.1784    1.2415   -2.0179 H         1 <0>         0.1364
     37 H6          2.2667    0.1460   -3.9296 H         1 <0>         0.1287
     38 H7          1.3157   -3.6900   -2.2560 H         1 <0>         0.1382
     39 H8          0.2388   -2.5811   -0.3455 H         1 <0>         0.1410
     40 H9          3.9843   -5.4276   -8.4000 H         1 <0>         0.1377
     41 H10         2.7515   -7.3012   -9.4074 H         1 <0>         0.1421
     42 H11         0.5703   -7.9800   -8.5116 H         1 <0>         0.1551
     43 H12        -0.8627   -6.8116   -5.5198 H         1 <0>         0.4260
     44 H13        -3.5583   -7.9418   -7.4321 H         1 <0>         0.4026
     45 H14        -4.3627   -9.1497   -5.3201 H         1 <0>         0.0574
     46 H15        -2.6323   -9.4188   -4.9971 H         1 <0>         0.0957
     47 H16        -4.0026   -9.4423   -2.9027 H         1 <0>         0.1069
     48 H17        -2.7964   -8.1323   -2.9048 H         1 <0>         0.0665
     49 H18        -5.3240   -5.6073   -3.6669 H         1 <0>         0.1069
     50 H19        -3.5855   -5.8422   -3.3612 H         1 <0>         0.0697
     51 H20        -3.9724   -5.5298   -5.7720 H         1 <0>         0.0969
     52 H21        -5.1497   -6.8658   -5.7753 H         1 <0>         0.0566
@<TRIPOS>BOND
     1    1    2 1
     2    1   33 1
     3    1   34 1
     4    1   35 1
     5    2    3 1
     6    3    8 ar
     7    3    4 ar
     8    4    5 ar
     9    4   36 1
    10    5    6 ar
    11    5   37 1
    12    6    7 ar
    13    6    9 1
    14    7    8 ar
    15    7   38 1
    16    8   39 1
    17    9   13 1
    18    9   10 2
    19   10   21 1
    20   10   11 1
    21   11   12 2
    22   11   15 1
    23   12   13 1
    24   13   14 1
    25   15   20 ar
    26   15   16 ar
    27   16   17 ar
    28   16   40 1
    29   17   18 ar
    30   17   41 1
    31   18   19 ar
    32   18   42 1
    33   19   20 ar
    34   19   23 1
    35   20   21 1
    36   21   22 2
    37   23   24 am
    38   23   43 1
    39   24   25 2
    40   24   26 am
    41   26   27 1
    42   26   44 1
    43   27   32 1
    44   27   28 1
    45   28   29 1
    46   28   45 1
    47   28   46 1
    48   29   30 1
    49   29   47 1
    50   29   48 1
    51   30   31 1
    52   31   32 1
    53   31   49 1
    54   31   50 1
    55   32   51 1
    56   32   52 1
@<TRIPOS>MOLECULE
CHEMBL357770
   52    56     0     0     0
SMALL
USER_CHARGES

@<TRIPOS>ATOM
      1 C1         -0.0084    1.4416   -0.0278 C.3       1 <0>         0.0250
      2 O1          0.0066    0.0127   -0.0352 O.3       1 <0>        -0.3147
      3 C2          0.6154   -0.5922   -1.0883 C.ar      1 <0>         0.1440
      4 C3          1.1916    0.1768   -2.0907 C.ar      1 <0>        -0.2136
      5 C4          1.8102   -0.4340   -3.1608 C.ar      1 <0>        -0.0424
      6 C5          1.8570   -1.8258   -3.2357 C.ar      1 <0>        -0.0725
      7 C6          1.2774   -2.5953   -2.2272 C.ar      1 <0>        -0.0345
      8 C7          0.6653   -1.9782   -1.1570 C.ar      1 <0>        -0.1524
      9 C8          2.5208   -2.4857   -4.3847 C.2       1 <0>         0.2006
     10 C9          3.2559   -3.6945   -4.3404 C.2       1 <0>        -0.3132
     11 C10         3.7033   -3.9525   -5.6294 C.2       1 <0>         0.1578
     12 N1          3.2604   -2.9483   -6.4164 N.pl3     1 <0>        -0.4251
     13 N2          2.5265   -2.0545   -5.6289 N.2       1 <0>        -0.2715
     14 H1          3.4210   -2.8630   -7.3693 H         1 <0>         0.4469
     15 C11         4.4807   -5.2150   -5.6239 C.ar      1 <0>         0.0083
     16 C12         5.1342   -5.9077   -6.6323 C.ar      1 <0>        -0.1085
     17 C13         5.8016   -7.0920   -6.3468 C.ar      1 <0>        -0.0676
     18 C14         5.8232   -7.5922   -5.0641 C.ar      1 <0>        -0.1165
     19 C15         5.1715   -6.9104   -4.0338 C.ar      1 <0>         0.2441
     20 C16         4.4989   -5.7208   -4.3107 C.ar      1 <0>        -0.1890
     21 C17         3.7301   -4.7829   -3.4618 C.2       1 <0>         0.4839
     22 O2          3.5279   -4.8882   -2.2682 O.2       1 <0>        -0.4272
     23 N3          5.1934   -7.4157   -2.7381 N.am      1 <0>        -0.6643
     24 C18         5.1747   -8.7478   -2.5339 C.2       1 <0>         0.7351
     25 O3          5.2214   -9.5087   -3.4810 O.2       1 <0>        -0.5686
     26 N4          5.1042   -9.2363   -1.2798 N.am      1 <0>        -0.5822
     27 N5          5.0517   -8.3814   -0.2157 N.3       1 <0>        -0.3074
     28 C19         6.2362   -8.5341    0.6417 C.3       1 <0>        -0.0038
     29 C20         6.1658   -7.5189    1.7855 C.3       1 <0>         0.0659
     30 O4          4.9462   -7.7066    2.5085 O.3       1 <0>        -0.3806
     31 C21         3.7723   -7.5643    1.7041 C.3       1 <0>         0.0655
     32 C22         3.8184   -8.5800    0.5594 C.3       1 <0>         0.0000
     33 H2          1.0154    1.8157   -0.0286 H         1 <0>         0.0576
     34 H3         -0.5284    1.8042   -0.9145 H         1 <0>         0.0575
     35 H4         -0.5236    1.7949    0.8654 H         1 <0>         0.1020
     36 H5          1.1547    1.2546   -2.0323 H         1 <0>         0.1335
     37 H6          2.2578    0.1647   -3.9403 H         1 <0>         0.1310
     38 H7          1.3116   -3.6733   -2.2825 H         1 <0>         0.1359
     39 H8          0.2201   -2.5735   -0.3735 H         1 <0>         0.1372
     40 H9          5.1239   -5.5253   -7.6423 H         1 <0>         0.1349
     41 H10         6.3077   -7.6254   -7.1379 H         1 <0>         0.1430
     42 H11         6.3451   -8.5141   -4.8542 H         1 <0>         0.1566
     43 H12         5.2221   -6.8094   -1.9815 H         1 <0>         0.4269
     44 H13         5.0907  -10.1950   -1.1328 H         1 <0>         0.4032
     45 H14         6.2607   -9.5436    1.0521 H         1 <0>         0.0578
     46 H15         7.1366   -8.3577    0.0534 H         1 <0>         0.0955
     47 H16         7.0126   -7.6665    2.4558 H         1 <0>         0.1071
     48 H17         6.1953   -6.5085    1.3777 H         1 <0>         0.0667
     49 H18         2.8881   -7.7448    2.3154 H         1 <0>         0.1076
     50 H19         3.7323   -6.5553    1.2939 H         1 <0>         0.0701
     51 H20         2.9540   -8.4371   -0.0890 H         1 <0>         0.0973
     52 H21         3.8043   -9.5903    0.9685 H         1 <0>         0.0570
@<TRIPOS>BOND
     1    1    2 1
     2    1   33 1
     3    1   34 1
     4    1   35 1
     5    2    3 1
     6    3    8 ar
     7    3    4 ar
     8    4    5 ar
     9    4   36 1
    10    5    6 ar
    11    5   37 1
    12    6    7 ar
    13    6    9 1
    14    7    8 ar
    15    7   38 1
    16    8   39 1
    17    9   10 1
    18    9   13 2
    19   10   21 1
    20   10   11 2
    21   11   15 1
    22   11   12 1
    23   12   14 1
    24   12   13 1
    25   15   20 ar
    26   15   16 ar
    27   16   17 ar
    28   16   40 1
    29   17   18 ar
    30   17   41 1
    31   18   19 ar
    32   18   42 1
    33   19   20 ar
    34   19   23 1
    35   20   21 1
    36   21   22 2
    37   23   24 am
    38   23   43 1
    39   24   25 2
    40   24   26 am
    41   26   27 1
    42   26   44 1
    43   27   32 1
    44   27   28 1
    45   28   29 1
    46   28   45 1
    47   28   46 1
    48   29   30 1
    49   29   47 1
    50   29   48 1
    51   30   31 1
    52   31   32 1
    53   31   49 1
    54   31   50 1
    55   32   51 1
    56   32   52 1
@<TRIPOS>MOLECULE
CHEMBL340741
   28    29     0     0     0
SMALL
USER_CHARGES

@<TRIPOS>ATOM
      1 C1         -0.0184    1.5028    0.0103 C.3       1 <0>        -0.1657
      2 C2          0.0021   -0.0041    0.0020 C.2       1 <0>         0.5054
      3 O1          0.0203   -0.6161    1.0491 O.2       1 <0>        -0.4732
      4 N1          0.0001   -0.6716   -1.1688 N.am      1 <0>        -0.6202
      5 C3          0.0189   -2.0636   -1.1765 C.2       1 <0>         0.3349
      6 N2          0.0342   -2.9055   -0.1599 N.2       1 <0>        -0.4903
      7 C4          0.0512   -4.2115   -0.3506 C.2       1 <0>         0.0806
      8 C5          0.0532   -4.7063   -1.6201 C.2       1 <0>        -0.2210
      9 S1          0.0211   -3.1888   -2.5656 S.3       1 <0>         0.0191
     10 S2          0.0744   -6.3782   -2.1760 S.3       1 <0>         0.0118
     11 C6          0.0654   -6.2394   -3.9847 C.3       1 <0>        -0.0745
     12 C7          0.0822   -7.6174   -4.5943 C.ar      1 <0>        -0.1356
     13 C8          1.2858   -8.2451   -4.8778 C.ar      1 <0>        -0.0540
     14 C9          1.2530   -9.5126   -5.4383 C.ar      1 <0>        -0.1707
     15 C10         0.0304  -10.1044   -5.6943 C.ar      1 <0>         0.1089
     16 N3         -1.0947   -9.4774   -5.4120 N.ar      1 <0>        -0.4818
     17 C11        -1.1014   -8.2739   -4.8727 C.ar      1 <0>         0.1225
     18 H1          1.0042    1.8801    0.0026 H         1 <0>         0.1032
     19 H2         -0.5455    1.8639   -0.8728 H         1 <0>         0.0868
     20 H3         -0.5286    1.8543    0.9071 H         1 <0>         0.1042
     21 H4         -0.0145   -0.1822   -2.0061 H         1 <0>         0.4282
     22 H5          0.0639   -4.8839    0.4945 H         1 <0>         0.1746
     23 H6         -0.8333   -5.7117   -4.3041 H         1 <0>         0.1042
     24 H7          0.9465   -5.6869   -4.3111 H         1 <0>         0.1027
     25 H8          2.2264   -7.7580   -4.6672 H         1 <0>         0.1391
     26 H9          2.1711  -10.0309   -5.6724 H         1 <0>         0.1410
     27 H10        -0.0038  -11.0916   -6.1309 H         1 <0>         0.1606
     28 H11        -2.0430   -7.7938   -4.6505 H         1 <0>         0.1590
@<TRIPOS>BOND
     1    1    2 1
     2    1   18 1
     3    1   19 1
     4    1   20 1
     5    2    3 2
     6    2    4 am
     7    4    5 1
     8    4   21 1
     9    5    9 1
    10    5    6 2
    11    6    7 1
    12    7    8 2
    13    7   22 1
    14    8    9 1
    15    8   10 1
    16   10   11 1
    17   11   12 1
    18   11   23 1
    19   11   24 1
    20   12   17 ar
    21   12   13 ar
    22   13   14 ar
    23   13   25 1
    24   14   15 ar
    25   14   26 1
    26   15   16 ar
    27   15   27 1
    28   16   17 ar
    29   17   28 1
@<TRIPOS>MOLECULE
CHEMBL185781
   59    64     0     0     0
SMALL
USER_CHARGES

@<TRIPOS>ATOM
      1 C1         -0.0429    1.4165    0.0451 C.3       1 <0>         0.0237
      2 O1         -0.0233   -0.0124    0.0412 O.3       1 <0>        -0.3116
      3 C2          0.6101   -0.6231    1.0754 C.ar      1 <0>         0.1525
      4 C3          1.1961    0.1411    2.0772 C.ar      1 <0>        -0.2104
      5 C4          1.8397   -0.4742    3.1283 C.ar      1 <0>        -0.0510
      6 C5          1.9027   -1.8692    3.1861 C.ar      1 <0>        -0.1022
      7 C6          1.3119   -2.6339    2.1763 C.ar      1 <0>        -0.0251
      8 C7          0.6655   -2.0103    1.1319 C.ar      1 <0>        -0.1500
      9 C8          2.5913   -2.5327    4.3096 C.2       1 <0>         0.2439
     10 C9          3.4845   -3.5913    4.2181 C.2       1 <0>        -0.3327
     11 C10         3.9027   -3.9051    5.5868 C.2       1 <0>         0.1278
     12 N1          3.2805   -3.0732    6.3850 N.2       1 <0>        -0.2333
     13 N2          2.4734   -2.2165    5.6299 N.pl3     1 <0>        -0.4652
     14 H1          1.9154   -1.5094    5.9897 H         1 <0>         0.4487
     15 C11         4.8598   -5.0370    5.5134 C.ar      1 <0>         0.0436
     16 C12         5.5536   -5.7238    6.5014 C.ar      1 <0>        -0.1069
     17 C13         6.4034   -6.7639    6.1630 C.ar      1 <0>        -0.0592
     18 C14         6.5711   -7.1307    4.8434 C.ar      1 <0>        -0.1299
     19 C15         5.8867   -6.4573    3.8369 C.ar      1 <0>         0.2419
     20 C16         5.0243   -5.4037    4.1662 C.ar      1 <0>        -0.1952
     21 C17         4.1842   -4.5261    3.3264 C.2       1 <0>         0.4944
     22 O2          4.0884   -4.5698    2.1143 O.2       1 <0>        -0.4500
     23 N3          6.0586   -6.8290    2.5064 N.am      1 <0>        -0.6757
     24 C18         6.4479   -8.0829    2.2019 C.2       1 <0>         0.7160
     25 O3          6.5498   -8.9179    3.0798 O.2       1 <0>        -0.5445
     26 N4          6.7242   -8.4112    0.9243 N.am      1 <0>        -0.5179
     27 N5          6.6067   -7.4491   -0.0873 N.am      1 <0>        -0.5302
     28 C19         6.8830   -7.7774   -1.3649 C.2       1 <0>         0.5685
     29 O4          7.2342   -8.9084   -1.6396 O.2       1 <0>        -0.5236
     30 C20         6.7592   -6.7626   -2.4319 C.ar      1 <0>        -0.1350
     31 C21         6.3580   -5.4541   -2.1074 C.ar      1 <0>        -0.0952
     32 C22         6.2370   -4.5045   -3.0695 C.ar      1 <0>        -0.1011
     33 C23         6.5141   -4.8230   -4.4118 C.ar      1 <0>        -0.0299
     34 C24         6.3964   -3.8569   -5.4249 C.ar      1 <0>        -0.1130
     35 C25         6.6716   -4.1945   -6.7147 C.ar      1 <0>        -0.1004
     36 C26         7.0693   -5.4876   -7.0493 C.ar      1 <0>        -0.1170
     37 C27         7.1945   -6.4502   -6.0955 C.ar      1 <0>        -0.0940
     38 C28         6.9193   -6.1386   -4.7518 C.ar      1 <0>        -0.0645
     39 C29         7.0444   -7.1056   -3.7430 C.ar      1 <0>        -0.0202
     40 H2          0.9795    1.7939    0.0263 H         1 <0>         0.0591
     41 H3         -0.5787    1.7749   -0.8339 H         1 <0>         0.1045
     42 H4         -0.5444    1.7705    0.9457 H         1 <0>         0.0587
     43 H5          1.1472    1.2190    2.0315 H         1 <0>         0.1368
     44 H6          2.2951    0.1204    3.9063 H         1 <0>         0.1291
     45 H7          1.3586   -3.7121    2.2169 H         1 <0>         0.1379
     46 H8          0.2046   -2.6005    0.3537 H         1 <0>         0.1410
     47 H9          5.4303   -5.4456    7.5376 H         1 <0>         0.1394
     48 H10         6.9393   -7.2918    6.9380 H         1 <0>         0.1445
     49 H11         7.2363   -7.9433    4.5911 H         1 <0>         0.1628
     50 H12         5.8982   -6.1856    1.7984 H         1 <0>         0.4114
     51 H13         7.0044   -9.3137    0.7051 H         1 <0>         0.4502
     52 H14         6.3266   -6.5467    0.1318 H         1 <0>         0.4213
     53 H15         6.1432   -5.2019   -1.0795 H         1 <0>         0.1244
     54 H16         5.9276   -3.5042   -2.8048 H         1 <0>         0.1367
     55 H17         6.0885   -2.8507   -5.1816 H         1 <0>         0.1316
     56 H18         6.5799   -3.4489   -7.4907 H         1 <0>         0.1274
     57 H19         7.2809   -5.7293   -8.0804 H         1 <0>         0.1281
     58 H20         7.5034   -7.4483   -6.3690 H         1 <0>         0.1330
     59 H21         7.3563   -8.1103   -3.9874 H         1 <0>         0.1460
@<TRIPOS>BOND
     1    1    2 1
     2    1   40 1
     3    1   41 1
     4    1   42 1
     5    2    3 1
     6    3    8 ar
     7    3    4 ar
     8    4    5 ar
     9    4   43 1
    10    5    6 ar
    11    5   44 1
    12    6    7 ar
    13    6    9 1
    14    7    8 ar
    15    7   45 1
    16    8   46 1
    17    9   13 1
    18    9   10 2
    19   10   21 1
    20   10   11 1
    21   11   12 2
    22   11   15 1
    23   12   13 1
    24   13   14 1
    25   15   20 ar
    26   15   16 ar
    27   16   17 ar
    28   16   47 1
    29   17   18 ar
    30   17   48 1
    31   18   19 ar
    32   18   49 1
    33   19   20 ar
    34   19   23 1
    35   20   21 1
    36   21   22 2
    37   23   24 am
    38   23   50 1
    39   24   25 2
    40   24   26 am
    41   26   27 1
    42   26   51 1
    43   27   28 am
    44   27   52 1
    45   28   29 2
    46   28   30 1
    47   30   39 ar
    48   30   31 ar
    49   31   32 ar
    50   31   53 1
    51   32   33 ar
    52   32   54 1
    53   33   38 ar
    54   33   34 ar
    55   34   35 ar
    56   34   55 1
    57   35   36 ar
    58   35   56 1
    59   36   37 ar
    60   36   57 1
    61   37   38 ar
    62   37   58 1
    63   38   39 ar
    64   39   59 1
@<TRIPOS>MOLECULE
CHEMBL185781
   59    64     0     0     0
SMALL
USER_CHARGES

@<TRIPOS>ATOM
      1 C1         -0.0654    1.4480    0.0160 C.3       1 <0>         0.0248
      2 O1         -0.0356    0.0194    0.0027 O.3       1 <0>        -0.3145
      3 C2         -1.2328   -0.6226    0.0153 C.ar      1 <0>         0.1446
      4 C3         -2.4119    0.1105    0.0343 C.ar      1 <0>        -0.2133
      5 C4         -3.6285   -0.5380    0.0471 C.ar      1 <0>        -0.0418
      6 C5         -3.6741   -1.9318    0.0410 C.ar      1 <0>        -0.0736
      7 C6         -2.4880   -2.6652    0.0220 C.ar      1 <0>        -0.0350
      8 C7         -1.2748   -2.0106    0.0035 C.ar      1 <0>        -0.1526
      9 C8         -4.9801   -2.6322    0.0552 C.2       1 <0>         0.2022
     10 C9         -5.2803   -3.8488   -0.6029 C.2       1 <0>        -0.3139
     11 C10        -6.6084   -4.1484   -0.3300 C.2       1 <0>         0.1590
     12 N1         -7.0894   -3.1608    0.4557 N.pl3     1 <0>        -0.4235
     13 N2         -6.0653   -2.2359    0.6871 N.2       1 <0>        -0.2701
     14 H1         -7.9927   -3.1043    0.8046 H         1 <0>         0.4476
     15 C11        -6.9619   -5.4204   -1.0049 C.ar      1 <0>         0.0131
     16 C12        -8.1408   -6.1496   -1.0535 C.ar      1 <0>        -0.1086
     17 C13        -8.1998   -7.3343   -1.7764 C.ar      1 <0>        -0.0616
     18 C14        -7.0932   -7.7990   -2.4512 C.ar      1 <0>        -0.1241
     19 C15        -5.8960   -7.0801   -2.4154 C.ar      1 <0>         0.2473
     20 C16        -5.8272   -5.8896   -1.6928 C.ar      1 <0>        -0.1961
     21 C17        -4.7342   -4.9180   -1.4632 C.2       1 <0>         0.4878
     22 O2         -3.6023   -4.9871   -1.8997 O.2       1 <0>        -0.4371
     23 N3         -4.7781   -7.5498   -3.0966 N.am      1 <0>        -0.6755
     24 C18        -4.9297   -8.3662   -4.1583 C.2       1 <0>         0.7164
     25 O3         -6.0422   -8.6100   -4.5836 O.2       1 <0>        -0.5446
     26 N4         -3.8480   -8.9123   -4.7483 N.am      1 <0>        -0.5168
     27 N5         -2.5660   -8.6313   -4.2581 N.am      1 <0>        -0.5308
     28 C19        -1.4842   -9.1773   -4.8481 C.2       1 <0>         0.5690
     29 O4         -1.6209   -9.9137   -5.8056 O.2       1 <0>        -0.5231
     30 C20        -0.1320   -8.8810   -4.3310 C.ar      1 <0>        -0.1357
     31 C21         0.0197   -8.0328   -3.2193 C.ar      1 <0>        -0.0958
     32 C22         1.2510   -7.7456   -2.7259 C.ar      1 <0>        -0.1002
     33 C23         2.3968   -8.2983   -3.3272 C.ar      1 <0>        -0.0298
     34 C24         3.6816   -8.0160   -2.8340 C.ar      1 <0>        -0.1126
     35 C25         4.7716   -8.5658   -3.4364 C.ar      1 <0>        -0.1003
     36 C26         4.6347   -9.4072   -4.5389 C.ar      1 <0>        -0.1167
     37 C27         3.4067   -9.7037   -5.0449 C.ar      1 <0>        -0.0944
     38 C28         2.2571   -9.1548   -4.4486 C.ar      1 <0>        -0.0646
     39 C29         0.9759   -9.4449   -4.9413 C.ar      1 <0>        -0.0199
     40 H2          0.9544    1.8328    0.0038 H         1 <0>         0.1023
     41 H3         -0.6003    1.8084   -0.8627 H         1 <0>         0.0577
     42 H4         -0.5730    1.7924    0.9170 H         1 <0>         0.0578
     43 H5         -2.3759    1.1899    0.0393 H         1 <0>         0.1338
     44 H6         -4.5452    0.0328    0.0622 H         1 <0>         0.1311
     45 H7         -2.5199   -3.7447    0.0175 H         1 <0>         0.1358
     46 H8         -0.3560   -2.5779   -0.0157 H         1 <0>         0.1373
     47 H9         -9.0151   -5.7955   -0.5276 H         1 <0>         0.1367
     48 H10        -9.1216   -7.8961   -1.8091 H         1 <0>         0.1455
     49 H11        -7.1508   -8.7218   -3.0093 H         1 <0>         0.1642
     50 H12        -3.8894   -7.2898   -2.8077 H         1 <0>         0.4121
     51 H13        -3.9570   -9.4998   -5.5123 H         1 <0>         0.4507
     52 H14        -2.4569   -8.0437   -3.4940 H         1 <0>         0.4212
     53 H15        -0.8549   -7.6044   -2.7524 H         1 <0>         0.1242
     54 H16         1.3514   -7.0923   -1.8718 H         1 <0>         0.1376
     55 H17         3.8040   -7.3653   -1.9808 H         1 <0>         0.1323
     56 H18         5.7576   -8.3463   -3.0542 H         1 <0>         0.1277
     57 H19         5.5159   -9.8296   -4.9987 H         1 <0>         0.1281
     58 H20         3.3153  -10.3570   -5.9000 H         1 <0>         0.1329
     59 H21         0.8549  -10.0991   -5.7920 H         1 <0>         0.1458
@<TRIPOS>BOND
     1    1    2 1
     2    1   40 1
     3    1   41 1
     4    1   42 1
     5    2    3 1
     6    3    8 ar
     7    3    4 ar
     8    4    5 ar
     9    4   43 1
    10    5    6 ar
    11    5   44 1
    12    6    7 ar
    13    6    9 1
    14    7    8 ar
    15    7   45 1
    16    8   46 1
    17    9   10 1
    18    9   13 2
    19   10   21 1
    20   10   11 2
    21   11   15 1
    22   11   12 1
    23   12   14 1
    24   12   13 1
    25   15   20 ar
    26   15   16 ar
    27   16   17 ar
    28   16   47 1
    29   17   18 ar
    30   17   48 1
    31   18   19 ar
    32   18   49 1
    33   19   20 ar
    34   19   23 1
    35   20   21 1
    36   21   22 2
    37   23   24 am
    38   23   50 1
    39   24   25 2
    40   24   26 am
    41   26   27 1
    42   26   51 1
    43   27   28 am
    44   27   52 1
    45   28   29 2
    46   28   30 1
    47   30   39 ar
    48   30   31 ar
    49   31   32 ar
    50   31   53 1
    51   32   33 ar
    52   32   54 1
    53   33   38 ar
    54   33   34 ar
    55   34   35 ar
    56   34   55 1
    57   35   36 ar
    58   35   56 1
    59   36   37 ar
    60   36   57 1
    61   37   38 ar
    62   37   58 1
    63   38   39 ar
    64   39   59 1
@<TRIPOS>MOLECULE
CHEMBL365872
   60    64     0     0     0
SMALL
USER_CHARGES

@<TRIPOS>ATOM
      1 C1         -0.0427    1.4166    0.0450 C.3       1 <0>         0.0237
      2 O1         -0.0232   -0.0123    0.0411 O.3       1 <0>        -0.3117
      3 C2          0.6102   -0.6230    1.0754 C.ar      1 <0>         0.1525
      4 C3          1.1962    0.1412    2.0772 C.ar      1 <0>        -0.2104
      5 C4          1.8398   -0.4742    3.1283 C.ar      1 <0>        -0.0509
      6 C5          1.9028   -1.8692    3.1861 C.ar      1 <0>        -0.1023
      7 C6          1.3120   -2.6338    2.1763 C.ar      1 <0>        -0.0252
      8 C7          0.6656   -2.0103    1.1319 C.ar      1 <0>        -0.1502
      9 C8          2.5913   -2.5326    4.3096 C.2       1 <0>         0.2439
     10 C9          3.4845   -3.5913    4.2181 C.2       1 <0>        -0.3331
     11 C10         3.9020   -3.9057    5.5869 C.2       1 <0>         0.1276
     12 N1          3.2795   -3.0740    6.3851 N.2       1 <0>        -0.2332
     13 N2          2.4735   -2.2165    5.6299 N.pl3     1 <0>        -0.4651
     14 H1          1.9162   -1.5087    5.9896 H         1 <0>         0.4487
     15 C11         4.8593   -5.0373    5.5134 C.ar      1 <0>         0.0436
     16 C12         5.5528   -5.7246    6.5015 C.ar      1 <0>        -0.1071
     17 C13         6.4026   -6.7646    6.1631 C.ar      1 <0>        -0.0593
     18 C14         6.5714   -7.1304    4.8434 C.ar      1 <0>        -0.1302
     19 C15         5.8874   -6.4567    3.8369 C.ar      1 <0>         0.2420
     20 C16         5.0247   -5.4033    4.1662 C.ar      1 <0>        -0.1952
     21 C17         4.1842   -4.5261    3.3264 C.2       1 <0>         0.4946
     22 O2          4.0885   -4.5697    2.1143 O.2       1 <0>        -0.4502
     23 N3          6.0601   -6.8278    2.5062 N.am      1 <0>        -0.6753
     24 C18         6.4498   -8.0814    2.2014 C.2       1 <0>         0.7150
     25 O3          6.5514   -8.9167    3.0789 O.2       1 <0>        -0.5465
     26 N4          6.7269   -8.4091    0.9237 N.am      1 <0>        -0.5218
     27 N5          6.6098   -7.4465   -0.0874 N.am      1 <0>        -0.5356
     28 C19         6.8868   -7.7741   -1.3651 C.2       1 <0>         0.5185
     29 O4          7.2375   -8.9023   -1.6394 O.2       1 <0>        -0.5251
     30 C20         6.7609   -6.7387   -2.4528 C.3       1 <0>        -0.1264
     31 C21         7.1303   -7.3654   -3.7988 C.3       1 <0>        -0.0639
     32 C22         7.0043   -6.3300   -4.8865 C.ar      1 <0>        -0.0952
     33 C23         5.8012   -6.1668   -5.5480 C.ar      1 <0>        -0.0973
     34 C24         5.6833   -5.2187   -6.5458 C.ar      1 <0>        -0.1429
     35 C25         6.7732   -4.4296   -6.8835 C.ar      1 <0>         0.1030
     36 C26         7.9792   -4.5950   -6.2179 C.ar      1 <0>        -0.1433
     37 C27         8.0904   -5.5410   -5.2173 C.ar      1 <0>        -0.0977
     38 O5          6.6599   -3.4965   -7.8650 O.3       1 <0>        -0.5003
     39 H2          0.9797    1.7940    0.0263 H         1 <0>         0.0591
     40 H3         -0.5785    1.7750   -0.8339 H         1 <0>         0.1046
     41 H4         -0.5443    1.7706    0.9457 H         1 <0>         0.0588
     42 H5          1.1473    1.2191    2.0315 H         1 <0>         0.1369
     43 H6          2.2952    0.1205    3.9063 H         1 <0>         0.1292
     44 H7          1.3586   -3.7121    2.2170 H         1 <0>         0.1379
     45 H8          0.2046   -2.6004    0.3536 H         1 <0>         0.1410
     46 H9          5.4291   -5.4466    7.5378 H         1 <0>         0.1394
     47 H10         6.9376   -7.2932    6.9382 H         1 <0>         0.1444
     48 H11         7.2371   -7.9425    4.5910 H         1 <0>         0.1625
     49 H12         5.9000   -6.1840    1.7985 H         1 <0>         0.4122
     50 H13         7.0073   -9.3113    0.7043 H         1 <0>         0.4492
     51 H14         6.3293   -6.5442    0.1320 H         1 <0>         0.4222
     52 H15         5.7341   -6.3749   -2.4910 H         1 <0>         0.1052
     53 H16         7.4334   -5.9071   -2.2424 H         1 <0>         0.1042
     54 H17         8.1571   -7.7293   -3.7606 H         1 <0>         0.0847
     55 H18         6.4577   -8.1970   -4.0091 H         1 <0>         0.0848
     56 H19         4.9530   -6.7814   -5.2847 H         1 <0>         0.1282
     57 H20         4.7435   -5.0921   -7.0627 H         1 <0>         0.1293
     58 H21         8.8291   -3.9819   -6.4790 H         1 <0>         0.1291
     59 H22         9.0278   -5.6671   -4.6958 H         1 <0>         0.1279
     60 H23         6.3784   -2.6266   -7.5501 H         1 <0>         0.3914
@<TRIPOS>BOND
     1    1    2 1
     2    1   39 1
     3    1   40 1
     4    1   41 1
     5    2    3 1
     6    3    8 ar
     7    3    4 ar
     8    4    5 ar
     9    4   42 1
    10    5    6 ar
    11    5   43 1
    12    6    7 ar
    13    6    9 1
    14    7    8 ar
    15    7   44 1
    16    8   45 1
    17    9   13 1
    18    9   10 2
    19   10   21 1
    20   10   11 1
    21   11   12 2
    22   11   15 1
    23   12   13 1
    24   13   14 1
    25   15   20 ar
    26   15   16 ar
    27   16   17 ar
    28   16   46 1
    29   17   18 ar
    30   17   47 1
    31   18   19 ar
    32   18   48 1
    33   19   20 ar
    34   19   23 1
    35   20   21 1
    36   21   22 2
    37   23   24 am
    38   23   49 1
    39   24   25 2
    40   24   26 am
    41   26   27 1
    42   26   50 1
    43   27   28 am
    44   27   51 1
    45   28   29 2
    46   28   30 1
    47   30   31 1
    48   30   52 1
    49   30   53 1
    50   31   32 1
    51   31   54 1
    52   31   55 1
    53   32   37 ar
    54   32   33 ar
    55   33   34 ar
    56   33   56 1
    57   34   35 ar
    58   34   57 1
    59   35   36 ar
    60   35   38 1
    61   36   37 ar
    62   36   58 1
    63   37   59 1
    64   38   60 1
@<TRIPOS>MOLECULE
CHEMBL365872
   60    64     0     0     0
SMALL
USER_CHARGES

@<TRIPOS>ATOM
      1 C1          0.0010    1.4492   -0.0344 C.3       1 <0>         0.0248
      2 O1          0.0199    0.0203   -0.0305 O.3       1 <0>        -0.3146
      3 C2          0.6172   -0.5915   -1.0862 C.ar      1 <0>         0.1446
      4 C3          1.1786    0.1710   -2.1019 C.ar      1 <0>        -0.2132
      5 C4          1.7852   -0.4468   -3.1749 C.ar      1 <0>        -0.0418
      6 C5          1.8350   -1.8391   -3.2391 C.ar      1 <0>        -0.0737
      7 C6          1.2706   -2.6019   -2.2171 C.ar      1 <0>        -0.0350
      8 C7          0.6701   -1.9779   -1.1444 C.ar      1 <0>        -0.1528
      9 C8          2.4858   -2.5065   -4.3913 C.2       1 <0>         0.2022
     10 C9          3.2248   -3.7128   -4.3467 C.2       1 <0>        -0.3141
     11 C10         3.6563   -3.9800   -5.6392 C.2       1 <0>         0.1588
     12 N1          3.2005   -2.9834   -6.4286 N.pl3     1 <0>        -0.4234
     13 N2          2.4742   -2.0853   -5.6389 N.2       1 <0>        -0.2700
     14 H1          3.3486   -2.9054   -7.3840 H         1 <0>         0.4476
     15 C11         4.4373   -5.2404   -5.6336 C.ar      1 <0>         0.0131
     16 C12         5.0795   -5.9395   -6.6447 C.ar      1 <0>        -0.1088
     17 C13         5.7536   -7.1199   -6.3584 C.ar      1 <0>        -0.0616
     18 C14         5.7931   -7.6095   -5.0721 C.ar      1 <0>        -0.1244
     19 C15         5.1531   -6.9211   -4.0389 C.ar      1 <0>         0.2474
     20 C16         4.4738   -5.7354   -4.3166 C.ar      1 <0>        -0.1962
     21 C17         3.7134   -4.7927   -3.4655 C.2       1 <0>         0.4880
     22 O2          3.5275   -4.8885   -2.2684 O.2       1 <0>        -0.4374
     23 N3          5.1926   -7.4160   -2.7397 N.am      1 <0>        -0.6751
     24 C18         6.2010   -8.2242   -2.3569 C.2       1 <0>         0.7154
     25 O3          7.1287   -8.4385   -3.1128 O.2       1 <0>        -0.5466
     26 N4          6.1808   -8.7950   -1.1361 N.am      1 <0>        -0.5206
     27 N5          5.1116   -8.5482   -0.2650 N.am      1 <0>        -0.5361
     28 C19         5.0914   -9.1189    0.9557 C.2       1 <0>         0.5188
     29 O4          5.9988   -9.8462    1.3002 O.2       1 <0>        -0.5244
     30 C20         3.9414   -8.8534    1.8927 C.3       1 <0>        -0.1264
     31 C21         4.1627   -9.6157    3.2007 C.3       1 <0>        -0.0638
     32 C22         3.0127   -9.3501    4.1377 C.ar      1 <0>        -0.0957
     33 C23         3.0687   -8.2818    5.0136 C.ar      1 <0>        -0.0971
     34 C24         2.0159   -8.0365    5.8739 C.ar      1 <0>        -0.1428
     35 C25         0.9018   -8.8630    5.8581 C.ar      1 <0>         0.1036
     36 C26         0.8479   -9.9340    4.9779 C.ar      1 <0>        -0.1432
     37 C27         1.9010  -10.1719    4.1161 C.ar      1 <0>        -0.0977
     38 O5         -0.1350   -8.6240    6.7037 O.3       1 <0>        -0.5004
     39 H2          1.0236    1.8260   -0.0510 H         1 <0>         0.0577
     40 H3         -0.5310    1.8031   -0.9174 H         1 <0>         0.0579
     41 H4         -0.5040    1.8083    0.8623 H         1 <0>         0.1024
     42 H5          1.1398    1.2491   -2.0515 H         1 <0>         0.1339
     43 H6          2.2210    0.1467   -3.9649 H         1 <0>         0.1312
     44 H7          1.3075   -3.6803   -2.2640 H         1 <0>         0.1358
     45 H8          0.2364   -2.5680   -0.3506 H         1 <0>         0.1373
     46 H9          5.0551   -5.5654   -7.6576 H         1 <0>         0.1366
     47 H10         6.2508   -7.6583   -7.1516 H         1 <0>         0.1454
     48 H11         6.3201   -8.5284   -4.8615 H         1 <0>         0.1640
     49 H12         4.4946   -7.1795   -2.1091 H         1 <0>         0.4130
     50 H13         6.9065   -9.3767   -0.8606 H         1 <0>         0.4498
     51 H14         4.3859   -7.9665   -0.5405 H         1 <0>         0.4221
     52 H15         3.8812   -7.7851    2.1005 H         1 <0>         0.1058
     53 H16         3.0120   -9.1866    1.4308 H         1 <0>         0.1047
     54 H17         4.2229  -10.6840    2.9929 H         1 <0>         0.0845
     55 H18         5.0921   -9.2824    3.6626 H         1 <0>         0.0847
     56 H19         3.9363   -7.6387    5.0256 H         1 <0>         0.1281
     57 H20         2.0604   -7.2023    6.5584 H         1 <0>         0.1294
     58 H21        -0.0184  -10.5788    4.9637 H         1 <0>         0.1291
     59 H22         1.8576  -11.0029    3.4276 H         1 <0>         0.1278
     60 H23        -0.8113   -8.0360    6.3405 H         1 <0>         0.3917
@<TRIPOS>BOND
     1    1    2 1
     2    1   39 1
     3    1   40 1
     4    1   41 1
     5    2    3 1
     6    3    8 ar
     7    3    4 ar
     8    4    5 ar
     9    4   42 1
    10    5    6 ar
    11    5   43 1
    12    6    7 ar
    13    6    9 1
    14    7    8 ar
    15    7   44 1
    16    8   45 1
    17    9   10 1
    18    9   13 2
    19   10   21 1
    20   10   11 2
    21   11   15 1
    22   11   12 1
    23   12   14 1
    24   12   13 1
    25   15   20 ar
    26   15   16 ar
    27   16   17 ar
    28   16   46 1
    29   17   18 ar
    30   17   47 1
    31   18   19 ar
    32   18   48 1
    33   19   20 ar
    34   19   23 1
    35   20   21 1
    36   21   22 2
    37   23   24 am
    38   23   49 1
    39   24   25 2
    40   24   26 am
    41   26   27 1
    42   26   50 1
    43   27   28 am
    44   27   51 1
    45   28   29 2
    46   28   30 1
    47   30   31 1
    48   30   52 1
    49   30   53 1
    50   31   32 1
    51   31   54 1
    52   31   55 1
    53   32   37 ar
    54   32   33 ar
    55   33   34 ar
    56   33   56 1
    57   34   35 ar
    58   34   57 1
    59   35   36 ar
    60   35   38 1
    61   36   37 ar
    62   36   58 1
    63   37   59 1
    64   38   60 1
@<TRIPOS>MOLECULE
CHEMBL225519
   27    29     0     0     0
SMALL
USER_CHARGES

@<TRIPOS>ATOM
      1 C1         -0.0169    1.3959    0.0097 C.ar      1 <0>        -0.1618
      2 C2          1.1798    2.0806    0.0020 C.ar      1 <0>         0.1119
      3 N1          2.3304    1.4343   -0.0125 N.ar      1 <0>        -0.4905
      4 C3          2.3933    0.1160   -0.0202 C.ar      1 <0>         0.1111
      5 C4          1.2454   -0.6477   -0.0138 C.ar      1 <0>        -0.1847
      6 C5          0.0021   -0.0041    0.0020 C.ar      1 <0>         0.0378
      7 C6         -1.2554   -0.7809    0.0103 C.2       1 <0>         0.0153
      8 C7         -2.5147   -0.2575    0.0197 C.2       1 <0>        -0.0781
      9 C8         -3.4022   -1.3410    0.0250 C.2       1 <0>        -0.2330
     10 C9         -2.6397   -2.5047    0.0203 C.2       1 <0>         0.0774
     11 N2         -1.3521   -2.1560    0.0039 N.pl3     1 <0>        -0.5120
     12 H1         -0.6030   -2.7721   -0.0077 H         1 <0>         0.4194
     13 C10        -3.2940   -3.8624    0.0294 C.3       1 <0>        -0.0705
     14 C11        -4.6415   -3.7554    0.7441 C.3       1 <0>         0.1240
     15 N3         -5.4275   -2.6111    0.3039 N.am      1 <0>        -0.7361
     16 C12        -4.8742   -1.4055    0.0321 C.2       1 <0>         0.5975
     17 O1         -5.5576   -0.4253   -0.1944 O.2       1 <0>        -0.5324
     18 H2         -0.9547    1.9314    0.0260 H         1 <0>         0.1422
     19 H3          1.1756    3.1606    0.0074 H         1 <0>         0.1619
     20 H4          3.3571   -0.3712   -0.0320 H         1 <0>         0.1582
     21 H5          1.3044   -1.7261   -0.0208 H         1 <0>         0.1271
     22 H6         -2.7770    0.7902    0.0231 H         1 <0>         0.1541
     23 H7         -3.4497   -4.1999   -0.9953 H         1 <0>         0.0965
     24 H8         -2.6562   -4.5718    0.5568 H         1 <0>         0.0985
     25 H9         -5.2114   -4.6656    0.5573 H         1 <0>         0.0946
     26 H10        -4.4646   -3.6684    1.8161 H         1 <0>         0.0675
     27 H11        -6.3862   -2.7170    0.2008 H         1 <0>         0.4040
@<TRIPOS>BOND
     1    1    6 ar
     2    1    2 ar
     3    1   18 1
     4    2    3 ar
     5    2   19 1
     6    3    4 ar
     7    4    5 ar
     8    4   20 1
     9    5    6 ar
    10    5   21 1
    11    6    7 1
    12    7   11 1
    13    7    8 2
    14    8    9 1
    15    8   22 1
    16    9   16 1
    17    9   10 2
    18   10   11 1
    19   10   13 1
    20   11   12 1
    21   13   14 1
    22   13   23 1
    23   13   24 1
    24   14   15 1
    25   14   25 1
    26   14   26 1
    27   15   16 am
    28   15   27 1
    29   16   17 2
@<TRIPOS>MOLECULE
CHEMBL372467
   45    48     0     0     0
SMALL
USER_CHARGES

@<TRIPOS>ATOM
      1 C1         -0.0420    1.5252    0.0241 C.3       1 <0>        -0.1461
      2 C2          0.0021   -0.0040    0.0020 C.3       1 <0>        -0.0624
      3 C3          0.7310   -0.5033    1.2229 C.ar      1 <0>        -0.0791
      4 C4          2.0436   -0.1289    1.4441 C.ar      1 <0>        -0.0655
      5 C5          2.7143   -0.5852    2.5620 C.ar      1 <0>        -0.1327
      6 C6          2.0692   -1.4202    3.4641 C.ar      1 <0>         0.1331
      7 C7          0.7513   -1.7940    3.2396 C.ar      1 <0>        -0.1379
      8 C8          0.0840   -1.3303    2.1226 C.ar      1 <0>        -0.0890
      9 N1          2.7476   -1.8854    4.5995 N.am      1 <0>        -0.5194
     10 C9          2.1724   -2.6048    5.5833 C.2       1 <0>         0.5185
     11 O1          1.0148   -2.9584    5.6510 O.2       1 <0>        -0.4521
     12 C10         3.2742   -2.8807    6.5871 C.3       1 <0>         0.0642
     13 N2          4.4529   -2.2229    5.9970 N.am      1 <0>        -0.7237
     14 C11         4.0473   -1.6748    4.8374 C.2       1 <0>         0.7018
     15 O2          4.7789   -1.0547    4.0908 O.2       1 <0>        -0.5252
     16 C12         0.7225   -0.4679   -1.2377 C.2       1 <0>         0.5261
     17 O3          1.7287   -1.1379   -1.1396 O.2       1 <0>        -0.4969
     18 N3          0.2486   -0.1382   -2.4556 N.am      1 <0>        -0.6359
     19 C13         0.9185   -0.5696   -3.6086 C.2       1 <0>         0.3038
     20 C14         2.0846   -1.3510   -3.6413 C.2       1 <0>        -0.2589
     21 C15         2.4136   -1.5515   -4.9376 C.2       1 <0>         0.1305
     22 N4          1.4941   -0.9231   -5.7000 N.pl3     1 <0>        -0.4675
     23 H1          1.4789   -0.8978   -6.6696 H         1 <0>         0.4389
     24 N5          0.5625   -0.3185   -4.8464 N.2       1 <0>        -0.3188
     25 C16         3.5971   -2.3368   -5.4414 C.3       1 <0>        -0.0984
     26 C17         4.2638   -1.8590   -6.7330 C.3       1 <0>        -0.1702
     27 C18         3.4172   -3.1335   -6.7352 C.3       1 <0>        -0.1701
     28 H2          0.9747    1.9180    0.0263 H         1 <0>         0.0671
     29 H3         -0.5692    1.8862   -0.8589 H         1 <0>         0.0664
     30 H4         -0.5631    1.8606    0.9209 H         1 <0>         0.0771
     31 H5         -1.0146   -0.3969   -0.0001 H         1 <0>         0.1131
     32 H6          2.5449    0.5208    0.7419 H         1 <0>         0.1279
     33 H7          3.7397   -0.2930    2.7339 H         1 <0>         0.1614
     34 H8          0.2470   -2.4438    3.9395 H         1 <0>         0.1519
     35 H9         -0.9427   -1.6172    1.9497 H         1 <0>         0.1315
     36 H10         3.0320   -2.4385    7.5535 H         1 <0>         0.1309
     37 H11         3.4430   -3.9529    6.6863 H         1 <0>         0.1307
     38 H12         5.3476   -2.1933    6.3704 H         1 <0>         0.4463
     39 H13        -0.5562    0.3977   -2.5341 H         1 <0>         0.4161
     40 H14         2.6233   -1.7255   -2.7834 H         1 <0>         0.1730
     41 H15         4.2392   -2.7650   -4.6718 H         1 <0>         0.1342
     42 H16         3.8464   -0.9767   -7.2183 H         1 <0>         0.0947
     43 H17         5.3449   -1.9728   -6.8132 H         1 <0>         0.1079
     44 H18         3.9413   -4.0857   -6.8169 H         1 <0>         0.1078
     45 H19         2.4429   -3.0896   -7.2220 H         1 <0>         0.0948
@<TRIPOS>BOND
     1    1    2 1
     2    1   28 1
     3    1   29 1
     4    1   30 1
     5    2    3 1
     6    2   16 1
     7    2   31 1
     8    3    8 ar
     9    3    4 ar
    10    4    5 ar
    11    4   32 1
    12    5    6 ar
    13    5   33 1
    14    6    7 ar
    15    6    9 1
    16    7    8 ar
    17    7   34 1
    18    8   35 1
    19    9   14 am
    20    9   10 am
    21   10   11 2
    22   10   12 1
    23   12   13 1
    24   12   36 1
    25   12   37 1
    26   13   14 am
    27   13   38 1
    28   14   15 2
    29   16   17 2
    30   16   18 am
    31   18   19 1
    32   18   39 1
    33   19   24 2
    34   19   20 1
    35   20   21 2
    36   20   40 1
    37   21   22 1
    38   21   25 1
    39   22   23 1
    40   22   24 1
    41   25   27 1
    42   25   26 1
    43   25   41 1
    44   26   27 1
    45   26   42 1
    46   26   43 1
    47   27   44 1
    48   27   45 1
@<TRIPOS>MOLECULE
CHEMBL372467
   45    48     0     0     0
SMALL
USER_CHARGES

@<TRIPOS>ATOM
      1 C1         -0.0420    1.5252    0.0241 C.3       1 <0>        -0.1461
      2 C2          0.0021   -0.0040    0.0020 C.3       1 <0>        -0.0604
      3 C3          0.7310   -0.5033    1.2229 C.ar      1 <0>        -0.0821
      4 C4          2.0436   -0.1289    1.4441 C.ar      1 <0>        -0.0655
      5 C5          2.7143   -0.5852    2.5620 C.ar      1 <0>        -0.1323
      6 C6          2.0692   -1.4202    3.4641 C.ar      1 <0>         0.1351
      7 C7          0.7513   -1.7940    3.2396 C.ar      1 <0>        -0.1377
      8 C8          0.0840   -1.3303    2.1226 C.ar      1 <0>        -0.0883
      9 N1          2.7476   -1.8854    4.5995 N.am      1 <0>        -0.5199
     10 C9          2.1724   -2.6048    5.5833 C.2       1 <0>         0.5187
     11 O1          1.0148   -2.9584    5.6510 O.2       1 <0>        -0.4520
     12 C10         3.2742   -2.8807    6.5871 C.3       1 <0>         0.0642
     13 N2          4.4529   -2.2229    5.9970 N.am      1 <0>        -0.7233
     14 C11         4.0473   -1.6748    4.8374 C.2       1 <0>         0.7018
     15 O2          4.7789   -1.0547    4.0908 O.2       1 <0>        -0.5249
     16 C12         0.7225   -0.4679   -1.2377 C.2       1 <0>         0.5237
     17 O3          1.7287   -1.1379   -1.1396 O.2       1 <0>        -0.4865
     18 N3          0.2486   -0.1382   -2.4556 N.am      1 <0>        -0.6514
     19 C13         0.9153   -0.5675   -3.6030 C.2       1 <0>         0.3068
     20 C14         2.0486   -1.3203   -3.6404 C.2       1 <0>        -0.2695
     21 C15         2.3814   -1.5263   -4.9820 C.2       1 <0>         0.1220
     22 N4          1.4880   -0.9241   -5.7246 N.2       1 <0>        -0.2794
     23 H1         -0.2241    0.1961   -5.1629 H         1 <0>         0.4364
     24 N5          0.5498   -0.3162   -4.8808 N.pl3     1 <0>        -0.4911
     25 C16         3.5667   -2.3079   -5.4871 C.3       1 <0>        -0.0852
     26 C17         4.6913   -2.6066   -4.4936 C.3       1 <0>        -0.1632
     27 C18         4.9028   -1.5710   -5.5998 C.3       1 <0>        -0.1631
     28 H2          0.9747    1.9180    0.0263 H         1 <0>         0.0680
     29 H3         -0.5692    1.8862   -0.8589 H         1 <0>         0.0642
     30 H4         -0.5631    1.8606    0.9209 H         1 <0>         0.0784
     31 H5         -1.0146   -0.3969   -0.0001 H         1 <0>         0.1132
     32 H6          2.5449    0.5208    0.7419 H         1 <0>         0.1276
     33 H7          3.7397   -0.2930    2.7339 H         1 <0>         0.1620
     34 H8          0.2470   -2.4438    3.9395 H         1 <0>         0.1525
     35 H9         -0.9427   -1.6172    1.9497 H         1 <0>         0.1314
     36 H10         3.0320   -2.4385    7.5535 H         1 <0>         0.1312
     37 H11         3.4430   -3.9529    6.6863 H         1 <0>         0.1310
     38 H12         5.3476   -2.1933    6.3704 H         1 <0>         0.4466
     39 H13        -0.5562    0.3977   -2.5341 H         1 <0>         0.4122
     40 H14         2.5938   -1.6920   -2.7854 H         1 <0>         0.1740
     41 H15         3.3447   -3.0653   -6.2389 H         1 <0>         0.1214
     42 H16         4.5738   -2.2377   -3.4746 H         1 <0>         0.1017
     43 H17         5.2093   -3.5606   -4.5916 H         1 <0>         0.1019
     44 H18         5.5599   -1.8437   -6.4256 H         1 <0>         0.1011
     45 H19         4.9244   -0.5208   -5.3086 H         1 <0>         0.0950
@<TRIPOS>BOND
     1    1    2 1
     2    1   28 1
     3    1   29 1
     4    1   30 1
     5    2    3 1
     6    2   16 1
     7    2   31 1
     8    3    8 ar
     9    3    4 ar
    10    4    5 ar
    11    4   32 1
    12    5    6 ar
    13    5   33 1
    14    6    7 ar
    15    6    9 1
    16    7    8 ar
    17    7   34 1
    18    8   35 1
    19    9   14 am
    20    9   10 am
    21   10   11 2
    22   10   12 1
    23   12   13 1
    24   12   36 1
    25   12   37 1
    26   13   14 am
    27   13   38 1
    28   14   15 2
    29   16   17 2
    30   16   18 am
    31   18   39 1
    32   18   19 1
    33   19   20 2
    34   19   24 1
    35   20   21 1
    36   20   40 1
    37   21   22 2
    38   21   25 1
    39   22   24 1
    40   23   24 1
    41   25   27 1
    42   25   26 1
    43   25   41 1
    44   26   27 1
    45   26   42 1
    46   26   43 1
    47   27   44 1
    48   27   45 1
@<TRIPOS>MOLECULE
CHEMBL372467
   45    48     0     0     0
SMALL
USER_CHARGES

@<TRIPOS>ATOM
      1 C1          0.0050    1.5258    0.0239 C.3       1 <0>        -0.1460
      2 C2          0.0021   -0.0040    0.0020 C.3       1 <0>        -0.0623
      3 C3          0.7075   -0.4901   -1.2379 C.ar      1 <0>        -0.0794
      4 C4          2.0329   -0.1592   -1.4522 C.ar      1 <0>        -0.0650
      5 C5          2.6819   -0.6028   -2.5879 C.ar      1 <0>        -0.1329
      6 C6          2.0023   -1.3819   -3.5144 C.ar      1 <0>         0.1332
      7 C7          0.6719   -1.7129   -3.2963 C.ar      1 <0>        -0.1381
      8 C8          0.0296   -1.2706   -2.1561 C.ar      1 <0>        -0.0888
      9 N1          2.6583   -1.8333   -4.6684 N.am      1 <0>        -0.5194
     10 C9          2.1167   -2.6824   -5.5639 C.2       1 <0>         0.5184
     11 O1          1.0124   -3.1812   -5.5252 O.2       1 <0>        -0.4519
     12 C10         3.1753   -2.8835   -6.6301 C.3       1 <0>         0.0642
     13 N2          4.2954   -2.0457   -6.1682 N.am      1 <0>        -0.7237
     14 C11         3.8971   -1.4699   -5.0195 C.2       1 <0>         0.7019
     15 O2          4.5867   -0.7073   -4.3714 O.2       1 <0>        -0.5256
     16 C12         0.7157   -0.5252    1.2228 C.2       1 <0>         0.5261
     17 O3          1.7002   -1.2227    1.0983 O.2       1 <0>        -0.4973
     18 N3          0.2599   -0.2163    2.4530 N.am      1 <0>        -0.6358
     19 C13         0.9236   -0.7010    3.5883 C.2       1 <0>         0.3038
     20 C14         2.0717   -1.5092    3.5903 C.2       1 <0>        -0.2589
     21 C15         2.4001   -1.7603    4.8780 C.2       1 <0>         0.1306
     22 N4          1.4976   -1.1371    5.6645 N.pl3     1 <0>        -0.4674
     23 H1          1.4860   -1.1439    6.6344 H         1 <0>         0.4389
     24 N5          0.5838   -0.4740    4.8353 N.2       1 <0>        -0.3188
     25 C16         3.5665   -2.5892    5.3507 C.3       1 <0>        -0.0985
     26 C17         3.3830   -3.3989    6.6359 C.3       1 <0>        -0.1703
     27 C18         4.2688   -2.1514    6.6376 C.3       1 <0>        -0.1699
     28 H2          1.0333    1.8872    0.0256 H         1 <0>         0.0672
     29 H3         -0.5111    1.9027   -0.8591 H         1 <0>         0.0771
     30 H4         -0.5052    1.8773    0.9207 H         1 <0>         0.0663
     31 H5         -1.0262   -0.3655    0.0003 H         1 <0>         0.1131
     32 H6          2.5610    0.4469   -0.7310 H         1 <0>         0.1280
     33 H7          3.7169   -0.3435   -2.7551 H         1 <0>         0.1614
     34 H8          0.1406   -2.3185   -4.0155 H         1 <0>         0.1519
     35 H9         -1.0041   -1.5314   -1.9837 H         1 <0>         0.1315
     36 H10         3.4747   -3.9303   -6.6806 H         1 <0>         0.1309
     37 H11         2.8135   -2.5398   -7.5992 H         1 <0>         0.1307
     38 H12         5.1521   -1.9296   -6.6081 H         1 <0>         0.4463
     39 H13        -0.5274    0.3415    2.5526 H         1 <0>         0.4161
     40 H14         2.5990   -1.8669    2.7183 H         1 <0>         0.1730
     41 H15         4.1827   -3.0253    4.5644 H         1 <0>         0.1341
     42 H16         2.4186   -3.3320    7.1395 H         1 <0>         0.0947
     43 H17         3.8783   -4.3680    6.6952 H         1 <0>         0.1079
     44 H18         5.3470   -2.2999    6.6980 H         1 <0>         0.1079
     45 H19         3.8873   -1.2638    7.1422 H         1 <0>         0.0949
@<TRIPOS>BOND
     1    1    2 1
     2    1   28 1
     3    1   29 1
     4    1   30 1
     5    2    3 1
     6    2   16 1
     7    2   31 1
     8    3    8 ar
     9    3    4 ar
    10    4    5 ar
    11    4   32 1
    12    5    6 ar
    13    5   33 1
    14    6    7 ar
    15    6    9 1
    16    7    8 ar
    17    7   34 1
    18    8   35 1
    19    9   14 am
    20    9   10 am
    21   10   11 2
    22   10   12 1
    23   12   13 1
    24   12   36 1
    25   12   37 1
    26   13   14 am
    27   13   38 1
    28   14   15 2
    29   16   17 2
    30   16   18 am
    31   18   19 1
    32   18   39 1
    33   19   24 2
    34   19   20 1
    35   20   21 2
    36   20   40 1
    37   21   22 1
    38   21   25 1
    39   22   23 1
    40   22   24 1
    41   25   27 1
    42   25   26 1
    43   25   41 1
    44   26   27 1
    45   26   42 1
    46   26   43 1
    47   27   44 1
    48   27   45 1
@<TRIPOS>MOLECULE
CHEMBL372467
   45    48     0     0     0
SMALL
USER_CHARGES

@<TRIPOS>ATOM
      1 C1          0.0050    1.5258    0.0239 C.3       1 <0>        -0.1461
      2 C2          0.0021   -0.0040    0.0020 C.3       1 <0>        -0.0603
      3 C3          0.7075   -0.4901   -1.2379 C.ar      1 <0>        -0.0825
      4 C4          2.0329   -0.1592   -1.4522 C.ar      1 <0>        -0.0649
      5 C5          2.6819   -0.6028   -2.5879 C.ar      1 <0>        -0.1324
      6 C6          2.0023   -1.3819   -3.5144 C.ar      1 <0>         0.1352
      7 C7          0.6719   -1.7129   -3.2963 C.ar      1 <0>        -0.1381
      8 C8          0.0296   -1.2706   -2.1561 C.ar      1 <0>        -0.0882
      9 N1          2.6583   -1.8333   -4.6684 N.am      1 <0>        -0.5198
     10 C9          2.1167   -2.6824   -5.5639 C.2       1 <0>         0.5186
     11 O1          1.0124   -3.1812   -5.5252 O.2       1 <0>        -0.4518
     12 C10         3.1753   -2.8835   -6.6301 C.3       1 <0>         0.0642
     13 N2          4.2954   -2.0457   -6.1682 N.am      1 <0>        -0.7233
     14 C11         3.8971   -1.4699   -5.0195 C.2       1 <0>         0.7020
     15 O2          4.5867   -0.7073   -4.3714 O.2       1 <0>        -0.5254
     16 C12         0.7157   -0.5252    1.2228 C.2       1 <0>         0.5238
     17 O3          1.7002   -1.2227    1.0983 O.2       1 <0>        -0.4869
     18 N3          0.2599   -0.2163    2.4530 N.am      1 <0>        -0.6513
     19 C13         0.9203   -0.6986    3.5828 C.2       1 <0>         0.3068
     20 C14         2.0301   -1.4866    3.5905 C.2       1 <0>        -0.2695
     21 C15         2.3659   -1.7398    4.9232 C.2       1 <0>         0.1219
     22 N4          1.4968   -1.1313    5.6892 N.2       1 <0>        -0.2794
     23 H1         -0.1729    0.0715    5.1723 H         1 <0>         0.4364
     24 N5          0.5777   -0.4634    4.8700 N.pl3     1 <0>        -0.4911
     25 C16         3.5296   -2.5718    5.3972 C.3       1 <0>        -0.0849
     26 C17         4.1937   -3.5019    4.3800 C.3       1 <0>        -0.1632
     27 C18         3.3230   -4.0846    5.4950 C.3       1 <0>        -0.1634
     28 H2          1.0333    1.8872    0.0256 H         1 <0>         0.0681
     29 H3         -0.5111    1.9027   -0.8591 H         1 <0>         0.0784
     30 H4         -0.5052    1.8773    0.9207 H         1 <0>         0.0642
     31 H5         -1.0262   -0.3655    0.0003 H         1 <0>         0.1131
     32 H6          2.5610    0.4469   -0.7310 H         1 <0>         0.1279
     33 H7          3.7169   -0.3435   -2.7551 H         1 <0>         0.1621
     34 H8          0.1406   -2.3185   -4.0155 H         1 <0>         0.1524
     35 H9         -1.0041   -1.5314   -1.9837 H         1 <0>         0.1313
     36 H10         3.4747   -3.9303   -6.6806 H         1 <0>         0.1313
     37 H11         2.8135   -2.5398   -7.5992 H         1 <0>         0.1310
     38 H12         5.1521   -1.9296   -6.6081 H         1 <0>         0.4466
     39 H13        -0.5274    0.3415    2.5526 H         1 <0>         0.4122
     40 H14         2.5572   -1.8515    2.7213 H         1 <0>         0.1740
     41 H15         4.1702   -2.1021    6.1435 H         1 <0>         0.1215
     42 H16         3.7889   -3.5121    3.3680 H         1 <0>         0.1015
     43 H17         5.2716   -3.6442    4.4569 H         1 <0>         0.1021
     44 H18         3.8280   -4.6102    6.3054 H         1 <0>         0.1012
     45 H19         2.3453   -4.4781    5.2165 H         1 <0>         0.0949
@<TRIPOS>BOND
     1    1    2 1
     2    1   28 1
     3    1   29 1
     4    1   30 1
     5    2    3 1
     6    2   16 1
     7    2   31 1
     8    3    8 ar
     9    3    4 ar
    10    4    5 ar
    11    4   32 1
    12    5    6 ar
    13    5   33 1
    14    6    7 ar
    15    6    9 1
    16    7    8 ar
    17    7   34 1
    18    8   35 1
    19    9   14 am
    20    9   10 am
    21   10   11 2
    22   10   12 1
    23   12   13 1
    24   12   36 1
    25   12   37 1
    26   13   14 am
    27   13   38 1
    28   14   15 2
    29   16   17 2
    30   16   18 am
    31   18   39 1
    32   18   19 1
    33   19   20 2
    34   19   24 1
    35   20   21 1
    36   20   40 1
    37   21   22 2
    38   21   25 1
    39   22   24 1
    40   23   24 1
    41   25   27 1
    42   25   26 1
    43   25   41 1
    44   26   27 1
    45   26   42 1
    46   26   43 1
    47   27   44 1
    48   27   45 1
@<TRIPOS>MOLECULE
CHEMBL525194
   31    34     0     0     0
SMALL
USER_CHARGES

@<TRIPOS>ATOM
      1 C1         -0.0169    1.3938    0.0097 C.2       1 <0>        -0.1598
      2 C2          1.1558    2.0922    0.0023 C.2       1 <0>        -0.0237
      3 C3          2.3670    1.3891   -0.0131 C.2       1 <0>         0.0961
      4 C4          3.7132    1.7862   -0.0243 C.2       1 <0>        -0.1946
      5 C5          4.4850    0.6204   -0.0382 C.2       1 <0>         0.0977
      6 N1          3.6837   -0.4195   -0.0359 N.2       1 <0>        -0.2505
      7 N2          2.3550    0.0182   -0.0204 N.pl3     1 <0>        -0.1755
      8 N3          1.1320   -0.6628   -0.0123 N.2       1 <0>        -0.2142
      9 C6          0.0021   -0.0041    0.0020 C.2       1 <0>         0.1192
     10 C7          4.2192    3.1742   -0.0222 C.ar      1 <0>         0.3113
     11 C8          5.5965    3.4296   -0.0402 C.ar      1 <0>        -0.2848
     12 C9          6.0217    4.7434   -0.0380 C.ar      1 <0>         0.1990
     13 N4          5.1225    5.7166   -0.0190 N.ar      1 <0>        -0.5767
     14 C10         3.8251    5.4476   -0.0021 C.ar      1 <0>         0.5781
     15 N5          3.3723    4.2038   -0.0087 N.ar      1 <0>        -0.5815
     16 N6          2.9198    6.4945    0.0179 N.pl3     1 <0>        -0.6713
     17 C11         3.4003    7.8784    0.0203 C.3       1 <0>         0.0992
     18 C12         2.7175    8.8617    0.9732 C.3       1 <0>        -0.1961
     19 C13         2.4620    8.9530   -0.5326 C.3       1 <0>        -0.1917
     20 H1         -0.9593    1.9210    0.0260 H         1 <0>         0.1604
     21 H2          1.1497    3.1722    0.0078 H         1 <0>         0.1699
     22 H3          5.5642    0.5817   -0.0494 H         1 <0>         0.2093
     23 H4         -0.9307   -0.5484    0.0080 H         1 <0>         0.2087
     24 H5          6.3090    2.6181   -0.0552 H         1 <0>         0.1453
     25 H6          7.0764    4.9754   -0.0512 H         1 <0>         0.1700
     26 H7          1.9673    6.3118    0.0304 H         1 <0>         0.4122
     27 H8          4.4688    8.0054   -0.1536 H         1 <0>         0.1436
     28 H9          1.9108    8.4788    1.5982 H         1 <0>         0.0957
     29 H10         3.3368    9.6357    1.4264 H         1 <0>         0.1034
     30 H11         2.9132    9.7871   -1.0699 H         1 <0>         0.1050
     31 H12         1.4871    8.6302   -0.8981 H         1 <0>         0.0964
@<TRIPOS>BOND
     1    1    9 1
     2    1    2 2
     3    1   20 1
     4    2    3 1
     5    2   21 1
     6    3    7 1
     7    3    4 2
     8    4    5 1
     9    4   10 1
    10    5    6 2
    11    5   22 1
    12    6    7 1
    13    7    8 1
    14    8    9 2
    15    9   23 1
    16   10   15 ar
    17   10   11 ar
    18   11   12 ar
    19   11   24 1
    20   12   13 ar
    21   12   25 1
    22   13   14 ar
    23   14   15 ar
    24   14   16 1
    25   16   17 1
    26   16   26 1
    27   17   19 1
    28   17   18 1
    29   17   27 1
    30   18   19 1
    31   18   28 1
    32   18   29 1
    33   19   30 1
    34   19   31 1
@<TRIPOS>MOLECULE
CHEMBL215803
   51    56     0     0     0
SMALL
USER_CHARGES

@<TRIPOS>ATOM
      1 C1         -0.0187    1.5258    0.0104 C.3       1 <0>        -0.1704
      2 C2          0.0021   -0.0041    0.0020 C.3       1 <0>         0.1168
      3 H1          0.4202   -0.3616   -0.9389 H         1 <0>         0.0779
      4 C3         -1.4244   -0.5432    0.1739 C.3       1 <0>        -0.1413
      5 C4         -1.3963   -1.4629    1.4002 C.3       1 <0>         0.0829
      6 H2         -1.7060   -2.4689    1.1263 H         1 <0>         0.0697
      7 C5          0.0662   -1.4787    1.8811 C.3       1 <0>         0.0420
      8 N1          0.8031   -0.4903    1.1114 N.3       1 <0>        -0.6025
      9 C6          1.5973    0.4617    1.8280 C.3       1 <0>         0.0932
     10 C7          2.9223   -0.1374    2.2991 C.3       1 <0>         0.1156
     11 N2          2.7093   -0.9272    3.5109 N.pl3     1 <0>        -0.3285
     12 C8          3.6574   -1.2653    4.4007 C.2       1 <0>         0.2949
     13 C9          3.0521   -2.0332    5.3925 C.ar      1 <0>        -0.2256
     14 C10         3.4899   -2.6710    6.5688 C.ar      1 <0>        -0.0030
     15 C11         2.6172   -3.3778    7.3394 C.ar      1 <0>        -0.1728
     16 C12         1.2706   -3.5111    7.0187 C.ar      1 <0>        -0.0244
     17 C13         0.7389   -2.9175    5.8866 C.ar      1 <0>        -0.0574
     18 C14         1.6306   -2.1329    5.0235 C.ar      1 <0>         0.1386
     19 N3          1.4721   -1.4501    3.9122 N.2       1 <0>        -0.2537
     20 C15        -0.6823   -3.0746    5.5362 C.2       1 <0>         0.1613
     21 C16        -1.5311   -3.9856    6.3251 C.2       1 <0>         0.5107
     22 N4         -2.8288   -4.1337    5.9857 N.am      1 <0>        -0.6180
     23 C17        -3.3243   -3.4214    4.9054 C.ar      1 <0>         0.1503
     24 C18        -4.6531   -3.5817    4.5227 C.ar      1 <0>        -0.1635
     25 C19        -5.1527   -2.8695    3.4506 C.ar      1 <0>        -0.0483
     26 C20        -4.3414   -1.9889    2.7498 C.ar      1 <0>        -0.1598
     27 C21        -3.0192   -1.8129    3.1091 C.ar      1 <0>         0.1804
     28 C22        -2.4859   -2.5489    4.1871 C.ar      1 <0>         0.0157
     29 N5         -1.1897   -2.4119    4.5225 N.2       1 <0>        -0.3834
     30 O1         -2.2375   -0.9385    2.4259 O.3       1 <0>        -0.3151
     31 O2         -1.0674   -4.5965    7.2702 O.2       1 <0>        -0.5063
     32 O3          4.9671   -0.9217    4.3431 O.3       1 <0>        -0.4583
     33 H3          0.9785    1.9039   -0.2147 H         1 <0>         0.0616
     34 H4         -0.7214    1.8837   -0.7419 H         1 <0>         0.0640
     35 H5         -0.3279    1.8795    0.9940 H         1 <0>         0.0591
     36 H6         -2.1182    0.2809    0.3401 H         1 <0>         0.0857
     37 H7         -1.7200   -1.1077   -0.7104 H         1 <0>         0.0819
     38 H8          0.1085   -1.2268    2.9407 H         1 <0>         0.1565
     39 H9          0.4963   -2.4673    1.7205 H         1 <0>         0.0591
     40 H10         1.8040    1.3118    1.1779 H         1 <0>         0.0952
     41 H11         1.0369    0.8091    2.6959 H         1 <0>         0.0475
     42 H12         3.3286   -0.7780    1.5163 H         1 <0>         0.0996
     43 H13         3.6281    0.6660    2.5101 H         1 <0>         0.0983
     44 H14         4.5266   -2.5989    6.8629 H         1 <0>         0.1260
     45 H15         2.9860   -3.8545    8.2356 H         1 <0>         0.1298
     46 H16         0.6269   -4.0886    7.6657 H         1 <0>         0.1676
     47 H17        -5.2928   -4.2631    5.0639 H         1 <0>         0.1399
     48 H18        -6.1835   -2.9988    3.1553 H         1 <0>         0.1428
     49 H19        -4.7474   -1.4356    1.9159 H         1 <0>         0.1417
     50 H20         5.1752   -0.0889    4.7882 H         1 <0>         0.4033
     51 H21        -3.4052   -4.7293    6.4897 H         1 <0>         0.4229
@<TRIPOS>BOND
     1    1    2 1
     2    1   33 1
     3    1   34 1
     4    1   35 1
     5    2    3 1
     6    2    8 1
     7    2    4 1
     8    4    5 1
     9    4   36 1
    10    4   37 1
    11    5    6 1
    12    5   30 1
    13    5    7 1
    14    7    8 1
    15    7   38 1
    16    7   39 1
    17    8    9 1
    18    9   10 1
    19    9   40 1
    20    9   41 1
    21   10   11 1
    22   10   42 1
    23   10   43 1
    24   11   19 1
    25   11   12 1
    26   12   13 2
    27   12   32 1
    28   13   18 ar
    29   13   14 ar
    30   14   15 ar
    31   14   44 1
    32   15   16 ar
    33   15   45 1
    34   16   17 ar
    35   16   46 1
    36   17   18 ar
    37   17   20 1
    38   18   19 2
    39   20   29 2
    40   20   21 1
    41   21   22 am
    42   21   31 2
    43   22   23 1
    44   22   51 1
    45   23   28 ar
    46   23   24 ar
    47   24   25 ar
    48   24   47 1
    49   25   26 ar
    50   25   48 1
    51   26   27 ar
    52   26   49 1
    53   27   28 ar
    54   27   30 1
    55   28   29 1
    56   32   50 1
@<TRIPOS>MOLECULE
CHEMBL215803
   52    57     0     0     0
SMALL
USER_CHARGES

@<TRIPOS>ATOM
      1 C1         -0.0187    1.5258    0.0104 C.3       1 <0>        -0.1820
      2 C2          0.0021   -0.0041    0.0020 C.3       1 <0>         0.0252
      3 H1          0.4202   -0.3615   -0.9390 H         1 <0>         0.1433
      4 C3         -1.4204   -0.5415    0.1731 C.3       1 <0>        -0.1445
      5 C4         -1.4875   -1.1073    1.5936 C.3       1 <0>         0.0845
      6 H2         -1.8070   -2.1498    1.5637 H         1 <0>         0.0993
      7 C5         -0.0753   -1.0052    2.1721 C.3       1 <0>        -0.0328
      8 N1          0.8118   -0.4953    1.1230 N.4       1 <0>        -0.3775
      9 C6          1.6261    0.6046    1.6586 C.3       1 <0>        -0.0193
     10 C7          2.8603    0.0345    2.3603 C.3       1 <0>         0.1038
     11 N2          2.5045   -0.3713    3.7222 N.pl3     1 <0>        -0.3666
     12 C8          3.3557   -0.4266    4.7585 C.2       1 <0>         0.3231
     13 C9          2.6419   -0.8686    5.8687 C.ar      1 <0>        -0.2165
     14 C10         2.9591   -1.1365    7.2121 C.ar      1 <0>        -0.0029
     15 C11         2.0070   -1.5865    8.0713 C.ar      1 <0>        -0.1606
     16 C12         0.6888   -1.7947    7.6842 C.ar      1 <0>        -0.0032
     17 C13         0.2719   -1.5471    6.3873 C.ar      1 <0>        -0.0694
     18 C14         1.2584   -1.0714    5.4116 C.ar      1 <0>         0.1714
     19 N3          1.2247   -0.7606    4.1343 N.2       1 <0>        -0.3095
     20 C15        -1.1313   -1.7598    5.9894 C.2       1 <0>         0.1736
     21 C16        -2.0635   -2.4426    6.9043 C.2       1 <0>         0.5089
     22 N4         -3.3402   -2.6421    6.5102 N.am      1 <0>        -0.6156
     23 C17        -3.7407   -2.1817    5.2685 C.ar      1 <0>         0.1550
     24 C18        -5.0493   -2.3760    4.8421 C.ar      1 <0>        -0.1487
     25 C19        -5.4524   -1.9068    3.6095 C.ar      1 <0>        -0.0472
     26 C20        -4.5650   -1.2324    2.7846 C.ar      1 <0>        -0.1423
     27 C21        -3.2591   -1.0255    3.1836 C.ar      1 <0>         0.1535
     28 C22        -2.8247   -1.5170    4.4313 C.ar      1 <0>         0.0179
     29 N5         -1.5476   -1.3476    4.8123 N.2       1 <0>        -0.4065
     30 O1         -2.3998   -0.3433    2.3843 O.3       1 <0>        -0.3000
     31 O2         -1.6885   -2.8215    7.9985 O.2       1 <0>        -0.4958
     32 O3          4.6729   -0.1093    4.7292 O.3       1 <0>        -0.4549
     33 H3          0.9692    1.9040   -0.2525 H         1 <0>         0.0840
     34 H4         -0.7495    1.8832   -0.7150 H         1 <0>         0.1048
     35 H5         -0.2905    1.8800    1.0048 H         1 <0>         0.0851
     36 H6         -2.1436    0.2655    0.0557 H         1 <0>         0.1244
     37 H7         -1.6144   -1.3295   -0.5547 H         1 <0>         0.1129
     38 H8         -0.0735   -0.3207    3.0205 H         1 <0>         0.1958
     39 H9          0.2628   -1.9901    2.4943 H         1 <0>         0.1317
     40 H10         1.9407    1.2544    0.8419 H         1 <0>         0.1575
     41 H11         1.0357    1.1792    2.3723 H         1 <0>         0.1450
     42 H12         3.2254   -0.8308    1.8071 H         1 <0>         0.1090
     43 H13         3.6396    0.7955    2.4000 H         1 <0>         0.1381
     44 H14         3.9685   -0.9835    7.5643 H         1 <0>         0.1345
     45 H15         2.2857   -1.7899    9.0947 H         1 <0>         0.1394
     46 H16        -0.0247   -2.1573    8.4093 H         1 <0>         0.1717
     47 H17        -5.7516   -2.8957    5.4770 H         1 <0>         0.1458
     48 H18        -6.4696   -2.0660    3.2835 H         1 <0>         0.1490
     49 H19        -4.8970   -0.8669    1.8240 H         1 <0>         0.1462
     50 H20         4.8584    0.8189    4.9270 H         1 <0>         0.4131
     51 H21        -3.9674   -3.1021    7.0898 H         1 <0>         0.4280
     52 H22         1.4191   -1.2357    0.8016 H         1 <0>         0.4204
@<TRIPOS>BOND
     1    1    2 1
     2    1   33 1
     3    1   34 1
     4    1   35 1
     5    2    3 1
     6    2    8 1
     7    2    4 1
     8    4    5 1
     9    4   36 1
    10    4   37 1
    11    5    6 1
    12    5   30 1
    13    5    7 1
    14    7    8 1
    15    7   38 1
    16    7   39 1
    17    8    9 1
    18    8   52 1
    19    9   10 1
    20    9   40 1
    21    9   41 1
    22   10   11 1
    23   10   42 1
    24   10   43 1
    25   11   19 1
    26   11   12 1
    27   12   13 2
    28   12   32 1
    29   13   18 ar
    30   13   14 ar
    31   14   15 ar
    32   14   44 1
    33   15   16 ar
    34   15   45 1
    35   16   17 ar
    36   16   46 1
    37   17   18 ar
    38   17   20 1
    39   18   19 2
    40   20   29 2
    41   20   21 1
    42   21   22 am
    43   21   31 2
    44   22   23 1
    45   22   51 1
    46   23   28 ar
    47   23   24 ar
    48   24   25 ar
    49   24   47 1
    50   25   26 ar
    51   25   48 1
    52   26   27 ar
    53   26   49 1
    54   27   28 ar
    55   27   30 1
    56   28   29 1
    57   32   50 1
@<TRIPOS>MOLECULE
CHEMBL272684
   41    44     0     0     0
SMALL
USER_CHARGES

@<TRIPOS>ATOM
      1 C1         -0.0167    1.3770    0.0096 C.ar      1 <0>        -0.0774
      2 C2          1.1611    2.1000    0.0023 C.ar      1 <0>        -0.1121
      3 C3          2.3846    1.4353   -0.0130 C.ar      1 <0>         0.0498
      4 C4          2.4081    0.0348   -0.0208 C.ar      1 <0>        -0.0522
      5 C5          1.2115   -0.6913   -0.0133 C.ar      1 <0>         0.1455
      6 C6          0.0021   -0.0041    0.0020 C.ar      1 <0>        -0.1247
      7 N1          1.5010   -2.0511   -0.0238 N.am      1 <0>        -0.6427
      8 C7          2.8269   -2.2699   -0.0379 C.2       1 <0>         0.5464
      9 O1          3.3734   -3.3578   -0.0500 O.2       1 <0>        -0.5216
     10 C8          3.5021   -0.9607   -0.0371 C.2       1 <0>        -0.0253
     11 N2          4.7961   -0.7276   -0.0487 N.2       1 <0>        -0.0657
     12 N3          5.6288   -1.7127   -0.0624 N.pl3     1 <0>        -0.4930
     13 C9          7.0019   -1.4653   -0.0747 C.ar      1 <0>         0.2353
     14 C10         7.4744   -0.1582   -0.0666 C.ar      1 <0>        -0.1689
     15 C11         8.8340    0.0827   -0.0790 C.ar      1 <0>         0.0054
     16 C12         9.7252   -0.9747   -0.0993 C.ar      1 <0>        -0.7026
     17 C13         9.2587   -2.2767   -0.1079 C.ar      1 <0>         0.0175
     18 C14         7.9007   -2.5255   -0.0894 C.ar      1 <0>        -0.1773
     19 S1         11.4592   -0.6624   -0.1150 S.o2      1 <0>         2.7044
     20 O2         12.0736   -1.8104   -0.6842 O.2       1 <0>        -0.9630
     21 O3         11.6323    0.6408   -0.6546 O.2       1 <0>        -0.9641
     22 N4         11.9582   -0.5916    1.4624 N.pl3     1 <0>        -1.2505
     23 C15         3.6523    2.2039   -0.0215 C.2       1 <0>         0.1006
     24 C16         3.7709    3.6079   -0.0099 C.2       1 <0>        -0.2529
     25 C17         5.0867    3.9124   -0.0233 C.2       1 <0>         0.0590
     26 N5          5.7825    2.7551   -0.0426 N.pl3     1 <0>        -0.4831
     27 H1          6.7489    2.6722   -0.0550 H         1 <0>         0.4377
     28 N6          4.8668    1.6951   -0.0354 N.2       1 <0>        -0.2392
     29 H2         -0.9626    1.8978    0.0260 H         1 <0>         0.1404
     30 H3          1.1326    3.1796    0.0080 H         1 <0>         0.1394
     31 H4         -0.9276   -0.5536    0.0083 H         1 <0>         0.1344
     32 H5          0.8312   -2.7527   -0.0208 H         1 <0>         0.4222
     33 H6          5.3004   -2.6254   -0.0640 H         1 <0>         0.4086
     34 H7          6.7791    0.6680   -0.0511 H         1 <0>         0.1609
     35 H8          9.2019    1.0981   -0.0730 H         1 <0>         0.1468
     36 H9          9.9576   -3.0999   -0.1242 H         1 <0>         0.1518
     37 H10         7.5372   -3.5425   -0.0909 H         1 <0>         0.1418
     38 H11        11.3173   -0.7156    2.1799 H         1 <0>         0.4168
     39 H12        12.8914   -0.4261    1.6689 H         1 <0>         0.4214
     40 H13         2.9546    4.3150    0.0067 H         1 <0>         0.1519
     41 H14         5.5083    4.9066   -0.0198 H         1 <0>         0.1784
@<TRIPOS>BOND
     1    1    6 ar
     2    1    2 ar
     3    1   29 1
     4    2    3 ar
     5    2   30 1
     6    3    4 ar
     7    3   23 1
     8    4   10 1
     9    4    5 ar
    10    5    6 ar
    11    5    7 1
    12    6   31 1
    13    7    8 am
    14    7   32 1
    15    8    9 2
    16    8   10 1
    17   10   11 2
    18   11   12 1
    19   12   13 1
    20   12   33 1
    21   13   18 ar
    22   13   14 ar
    23   14   15 ar
    24   14   34 1
    25   15   16 ar
    26   15   35 1
    27   16   17 ar
    28   16   19 1
    29   17   18 ar
    30   17   36 1
    31   18   37 1
    32   19   20 2
    33   19   21 2
    34   19   22 1
    35   22   38 1
    36   22   39 1
    37   23   28 2
    38   23   24 1
    39   24   25 2
    40   24   40 1
    41   25   26 1
    42   25   41 1
    43   26   27 1
    44   26   28 1
@<TRIPOS>MOLECULE
CHEMBL272684
   41    44     0     0     0
SMALL
USER_CHARGES

@<TRIPOS>ATOM
      1 C1         -0.0167    1.3773    0.0096 C.ar      1 <0>        -0.0715
      2 C2          1.1602    2.1006    0.0023 C.ar      1 <0>        -0.1064
      3 C3          2.3856    1.4349   -0.0130 C.ar      1 <0>         0.0318
      4 C4          2.4082    0.0326   -0.0208 C.ar      1 <0>        -0.0695
      5 C5          1.2111   -0.6923   -0.0133 C.ar      1 <0>         0.1534
      6 C6          0.0021   -0.0041    0.0020 C.ar      1 <0>        -0.1223
      7 N1          1.4993   -2.0524   -0.0241 N.am      1 <0>        -0.6412
      8 C7          2.8250   -2.2721   -0.0384 C.2       1 <0>         0.5489
      9 O1          3.3708   -3.3604   -0.0502 O.2       1 <0>        -0.5141
     10 C8          3.5011   -0.9633   -0.0374 C.2       1 <0>        -0.0167
     11 N2          4.7955   -0.7310   -0.0484 N.2       1 <0>        -0.1236
     12 N3          5.6275   -1.7167   -0.0625 N.pl3     1 <0>        -0.4835
     13 C9          7.0007   -1.4703   -0.0742 C.ar      1 <0>         0.2196
     14 C10         7.4742   -0.1635   -0.0649 C.ar      1 <0>        -0.1626
     15 C11         8.8339    0.0764   -0.0760 C.ar      1 <0>         0.0181
     16 C12         9.7244   -0.9816   -0.0964 C.ar      1 <0>        -0.6995
     17 C13         9.2570   -2.2833   -0.1057 C.ar      1 <0>         0.0167
     18 C14         7.8988   -2.5311   -0.0893 C.ar      1 <0>        -0.1731
     19 S1         11.4586   -0.6704   -0.1111 S.o2      1 <0>         2.7043
     20 O2         12.0725   -1.8186   -0.6804 O.2       1 <0>        -0.9629
     21 O3         11.6329    0.6328   -0.6501 O.2       1 <0>        -0.9605
     22 N4         11.9570   -0.6006    1.4666 N.pl3     1 <0>        -1.2499
     23 C15         3.6493    2.2006   -0.0215 C.2       1 <0>         0.1202
     24 C16         3.9022    3.3540   -0.7304 C.2       1 <0>        -0.2450
     25 C17         5.2126    3.7430   -0.4529 C.2       1 <0>         0.0493
     26 N5          5.7385    2.8803    0.3789 N.2       1 <0>        -0.2858
     27 H1          4.9048    1.1441    1.2699 H         1 <0>         0.4363
     28 N6          4.7824    1.9011    0.6758 N.pl3     1 <0>        -0.4541
     29 H2         -0.9627    1.8980    0.0260 H         1 <0>         0.1435
     30 H3          1.1315    3.1802    0.0080 H         1 <0>         0.1431
     31 H4         -0.9278   -0.5533    0.0083 H         1 <0>         0.1374
     32 H5          0.8289   -2.7534   -0.0213 H         1 <0>         0.4250
     33 H6          5.2985   -2.6292   -0.0649 H         1 <0>         0.4146
     34 H7          6.7794    0.6632   -0.0493 H         1 <0>         0.1538
     35 H8          9.2025    1.0915   -0.0691 H         1 <0>         0.1528
     36 H9          9.9554   -3.1070   -0.1216 H         1 <0>         0.1532
     37 H10         7.5346   -3.5478   -0.0924 H         1 <0>         0.1423
     38 H11        11.3156   -0.7245    2.1837 H         1 <0>         0.4168
     39 H12        12.8902   -0.4358    1.6736 H         1 <0>         0.4217
     40 H13         3.2105    3.8652   -1.3836 H         1 <0>         0.1524
     41 H14         5.7106    4.6117   -0.8575 H         1 <0>         0.1867
@<TRIPOS>BOND
     1    1    6 ar
     2    1    2 ar
     3    1   29 1
     4    2    3 ar
     5    2   30 1
     6    3    4 ar
     7    3   23 1
     8    4   10 1
     9    4    5 ar
    10    5    6 ar
    11    5    7 1
    12    6   31 1
    13    7    8 am
    14    7   32 1
    15    8    9 2
    16    8   10 1
    17   10   11 2
    18   11   12 1
    19   12   13 1
    20   12   33 1
    21   13   18 ar
    22   13   14 ar
    23   14   15 ar
    24   14   34 1
    25   15   16 ar
    26   15   35 1
    27   16   17 ar
    28   16   19 1
    29   17   18 ar
    30   17   36 1
    31   18   37 1
    32   19   20 2
    33   19   21 2
    34   19   22 1
    35   22   38 1
    36   22   39 1
    37   23   24 2
    38   23   28 1
    39   24   25 1
    40   24   40 1
    41   25   26 2
    42   25   41 1
    43   26   28 1
    44   27   28 1
@<TRIPOS>MOLECULE
CHEMBL411865
   51    54     0     0     0
SMALL
USER_CHARGES

@<TRIPOS>ATOM
      1 C1         -0.0496    1.4372    0.0004 C.ar      1 <0>        -0.0701
      2 C2          1.0912    2.2222   -0.0165 C.ar      1 <0>        -0.1432
      3 C3          2.3381    1.6303   -0.0356 C.ar      1 <0>        -0.0088
      4 C4          2.4433    0.2437   -0.0374 C.ar      1 <0>        -0.0804
      5 C5          1.2919   -0.5540   -0.0200 C.ar      1 <0>         0.1520
      6 C6          0.0443    0.0604   -0.0012 C.ar      1 <0>        -0.1383
      7 N1          1.6626   -1.8936   -0.0258 N.am      1 <0>        -0.6431
      8 C7          2.9990   -2.0329   -0.0463 C.2       1 <0>         0.5456
      9 O1          3.6091   -3.0866   -0.0558 O.2       1 <0>        -0.5184
     10 C8          3.5957   -0.6866   -0.0552 C.2       1 <0>        -0.0054
     11 N2          4.8730   -0.3777   -0.0747 N.2       1 <0>        -0.1172
     12 N3          5.7595   -1.3069   -0.1968 N.pl3     1 <0>        -0.4909
     13 C9          7.1160   -0.9932   -0.1054 C.ar      1 <0>         0.2294
     14 C10         7.5180    0.3316    0.0172 C.ar      1 <0>        -0.1597
     15 C11         8.8613    0.6381    0.1079 C.ar      1 <0>         0.0140
     16 C12         9.8063   -0.3712    0.0768 C.ar      1 <0>        -0.7023
     17 C13         9.4101   -1.6907   -0.0457 C.ar      1 <0>         0.0181
     18 C14         8.0683   -2.0053   -0.1310 C.ar      1 <0>        -0.1761
     19 S1         11.5193    0.0248    0.1928 S.o2      1 <0>         2.7040
     20 O2         12.2265   -1.0511   -0.4085 O.2       1 <0>        -0.9630
     21 O3         11.6564    1.3682   -0.2495 O.2       1 <0>        -0.9627
     22 N4         11.9168    0.0128    1.8003 N.pl3     1 <0>        -1.2504
     23 C15         3.5803    2.4832   -0.0550 C.3       1 <0>        -0.0751
     24 C16         3.1858    3.9559   -0.1841 C.3       1 <0>        -0.0823
     25 C17         4.4276    4.7981   -0.3243 C.ar      1 <0>        -0.0917
     26 C18         5.1114    5.2126    0.8036 C.ar      1 <0>        -0.0996
     27 C19         6.2497    5.9851    0.6778 C.ar      1 <0>        -0.1431
     28 C20         6.7069    6.3447   -0.5817 C.ar      1 <0>         0.1022
     29 C21         6.0192    5.9271   -1.7120 C.ar      1 <0>        -0.1428
     30 C22         4.8843    5.1504   -1.5809 C.ar      1 <0>        -0.0993
     31 O4          7.8262    7.1049   -0.7082 O.3       1 <0>        -0.5011
     32 H1         -1.0219    1.9070    0.0195 H         1 <0>         0.1357
     33 H2          1.0052    3.2988   -0.0150 H         1 <0>         0.1386
     34 H3         -0.8526   -0.5410    0.0124 H         1 <0>         0.1317
     35 H4          1.0361   -2.6341   -0.0159 H         1 <0>         0.4224
     36 H5          5.4830   -2.2236   -0.3521 H         1 <0>         0.4121
     37 H6          6.7806    1.1204    0.0413 H         1 <0>         0.1491
     38 H7          9.1744    1.6674    0.2029 H         1 <0>         0.1500
     39 H8         10.1508   -2.4762   -0.0700 H         1 <0>         0.1521
     40 H9          7.7594   -3.0362   -0.2217 H         1 <0>         0.1417
     41 H10        11.2408   -0.1902    2.4656 H         1 <0>         0.4169
     42 H11        12.8257    0.2088    2.0766 H         1 <0>         0.4216
     43 H12         4.1367    2.3359    0.8707 H         1 <0>         0.0851
     44 H13         4.2035    2.1984   -0.9027 H         1 <0>         0.0843
     45 H14         2.5562    4.0875   -1.0641 H         1 <0>         0.0790
     46 H15         2.6363    4.2641    0.7053 H         1 <0>         0.0793
     47 H16         4.7552    4.9324    1.7839 H         1 <0>         0.1261
     48 H17         6.7832    6.3092    1.5592 H         1 <0>         0.1280
     49 H18         6.3730    6.2058   -2.6936 H         1 <0>         0.1279
     50 H19         4.3511    4.8214   -2.4606 H         1 <0>         0.1259
     51 H20         8.6439    6.5931   -0.7745 H         1 <0>         0.3923
@<TRIPOS>BOND
     1    1    6 ar
     2    1    2 ar
     3    1   32 1
     4    2    3 ar
     5    2   33 1
     6    3    4 ar
     7    3   23 1
     8    4   10 1
     9    4    5 ar
    10    5    6 ar
    11    5    7 1
    12    6   34 1
    13    7    8 am
    14    7   35 1
    15    8    9 2
    16    8   10 1
    17   10   11 2
    18   11   12 1
    19   12   13 1
    20   12   36 1
    21   13   18 ar
    22   13   14 ar
    23   14   15 ar
    24   14   37 1
    25   15   16 ar
    26   15   38 1
    27   16   17 ar
    28   16   19 1
    29   17   18 ar
    30   17   39 1
    31   18   40 1
    32   19   20 2
    33   19   21 2
    34   19   22 1
    35   22   41 1
    36   22   42 1
    37   23   24 1
    38   23   43 1
    39   23   44 1
    40   24   25 1
    41   24   45 1
    42   24   46 1
    43   25   30 ar
    44   25   26 ar
    45   26   27 ar
    46   26   47 1
    47   27   28 ar
    48   27   48 1
    49   28   29 ar
    50   28   31 1
    51   29   30 ar
    52   29   49 1
    53   30   50 1
    54   31   51 1
@<TRIPOS>MOLECULE
CHEMBL147290
   51    55     0     0     0
SMALL
USER_CHARGES

@<TRIPOS>ATOM
      1 C1         -0.0348    1.4176   -0.0285 C.3       1 <0>         0.0237
      2 O1         -0.0188   -0.0112   -0.0382 O.3       1 <0>        -0.3117
      3 C2         -1.2214   -0.6413   -0.0194 C.ar      1 <0>         0.1519
      4 C3         -2.3938    0.1042    0.0021 C.ar      1 <0>        -0.2104
      5 C4         -3.6160   -0.5309    0.0217 C.ar      1 <0>        -0.0513
      6 C5         -3.6758   -1.9272    0.0194 C.ar      1 <0>        -0.1015
      7 C6         -2.4941   -2.6731   -0.0027 C.ar      1 <0>        -0.0253
      8 C7         -1.2763   -2.0298   -0.0275 C.ar      1 <0>        -0.1501
      9 C8         -4.9824   -2.6118    0.0408 C.2       1 <0>         0.2420
     10 C9         -5.3329   -3.6923    0.8387 C.2       1 <0>        -0.3320
     11 C10        -6.7220   -4.0220    0.5097 C.2       1 <0>         0.1279
     12 N1         -7.1154   -3.1777   -0.4116 N.2       1 <0>        -0.2347
     13 N2         -6.0720   -2.2975   -0.7149 N.pl3     1 <0>        -0.4657
     14 H1         -6.1161   -1.5775   -1.3634 H         1 <0>         0.4483
     15 C11        -7.1190   -5.1771    1.3527 C.ar      1 <0>         0.0425
     16 C12        -8.3106   -5.8848    1.4458 C.ar      1 <0>        -0.1101
     17 C13        -8.4259   -6.9445    2.3303 C.ar      1 <0>        -0.0613
     18 C14        -7.3613   -7.3100    3.1284 C.ar      1 <0>        -0.1314
     19 C15        -6.1584   -6.6156    3.0528 C.ar      1 <0>         0.2464
     20 C16        -6.0290   -5.5423    2.1620 C.ar      1 <0>        -0.1971
     21 C17        -4.8957   -4.6410    1.8718 C.2       1 <0>         0.4927
     22 O2         -3.7972   -4.6780    2.3938 O.2       1 <0>        -0.4474
     23 N3         -5.0864   -6.9862    3.8600 N.am      1 <0>        -0.6759
     24 C18        -4.9974   -8.2482    4.3247 C.2       1 <0>         0.7079
     25 O3         -5.7953   -9.0889    3.9575 O.2       1 <0>        -0.5644
     26 N4         -4.0239   -8.5782    5.1964 N.am      1 <0>        -0.7341
     27 C19        -3.9272   -9.9500    5.7015 C.3       1 <0>         0.1784
     28 C20        -2.7632  -10.0540    6.6530 C.ar      1 <0>        -0.0682
     29 C21        -1.4970  -10.3812    6.1923 C.ar      1 <0>        -0.1527
     30 C22        -0.4536  -10.4674    7.0945 C.ar      1 <0>         0.0998
     31 N5         -0.6521  -10.2432    8.3788 N.ar      1 <0>        -0.4783
     32 C23        -1.8424   -9.9299    8.8522 C.ar      1 <0>         0.0994
     33 C24        -2.9318   -9.8193    8.0090 C.ar      1 <0>        -0.1529
     34 H2          0.9886    1.7926   -0.0455 H         1 <0>         0.1045
     35 H3         -0.5695    1.7810   -0.9060 H         1 <0>         0.0587
     36 H4         -0.5356    1.7693    0.8736 H         1 <0>         0.0590
     37 H5         -2.3467    1.1832    0.0039 H         1 <0>         0.1368
     38 H6         -4.5268    0.0494    0.0391 H         1 <0>         0.1291
     39 H7         -2.5357   -3.7523   -0.0046 H         1 <0>         0.1378
     40 H8         -0.3627   -2.6054   -0.0490 H         1 <0>         0.1409
     41 H9         -9.1507   -5.6075    0.8263 H         1 <0>         0.1379
     42 H10        -9.3564   -7.4887    2.3960 H         1 <0>         0.1425
     43 H11        -7.4625   -8.1379    3.8145 H         1 <0>         0.1620
     44 H12        -4.4036   -6.3361    4.0880 H         1 <0>         0.4180
     45 H13        -3.3874   -7.9075    5.4893 H         1 <0>         0.4024
     46 H14        -4.8478  -10.2107    6.2237 H         1 <0>         0.0854
     47 H15        -3.7765  -10.6347    4.8669 H         1 <0>         0.0850
     48 H16        -1.3283  -10.5666    5.1418 H         1 <0>         0.1386
     49 H17         0.5356  -10.7217    6.7438 H         1 <0>         0.1594
     50 H18        -1.9664   -9.7537    9.9105 H         1 <0>         0.1593
     51 H19        -3.9031   -9.5575    8.4020 H         1 <0>         0.1386
@<TRIPOS>BOND
     1    1    2 1
     2    1   34 1
     3    1   35 1
     4    1   36 1
     5    2    3 1
     6    3    8 ar
     7    3    4 ar
     8    4    5 ar
     9    4   37 1
    10    5    6 ar
    11    5   38 1
    12    6    7 ar
    13    6    9 1
    14    7    8 ar
    15    7   39 1
    16    8   40 1
    17    9   13 1
    18    9   10 2
    19   10   21 1
    20   10   11 1
    21   11   12 2
    22   11   15 1
    23   12   13 1
    24   13   14 1
    25   15   20 ar
    26   15   16 ar
    27   16   17 ar
    28   16   41 1
    29   17   18 ar
    30   17   42 1
    31   18   19 ar
    32   18   43 1
    33   19   20 ar
    34   19   23 1
    35   20   21 1
    36   21   22 2
    37   23   24 am
    38   23   44 1
    39   24   25 2
    40   24   26 am
    41   26   27 1
    42   26   45 1
    43   27   28 1
    44   27   46 1
    45   27   47 1
    46   28   33 ar
    47   28   29 ar
    48   29   30 ar
    49   29   48 1
    50   30   31 ar
    51   30   49 1
    52   31   32 ar
    53   32   33 ar
    54   32   50 1
    55   33   51 1
@<TRIPOS>MOLECULE
CHEMBL147290
   51    55     0     0     0
SMALL
USER_CHARGES

@<TRIPOS>ATOM
      1 C1          0.0116    1.4478    0.0466 C.3       1 <0>         0.0249
      2 O1          0.0212    0.0189    0.0327 O.3       1 <0>        -0.3147
      3 C2          0.6463   -0.6038    1.0657 C.ar      1 <0>         0.1442
      4 C3          1.2333    0.1482    2.0748 C.ar      1 <0>        -0.2134
      5 C4          1.8685   -0.4807    3.1246 C.ar      1 <0>        -0.0422
      6 C5          1.9212   -1.8735    3.1722 C.ar      1 <0>        -0.0732
      7 C6          1.3307   -2.6257    2.1572 C.ar      1 <0>        -0.0349
      8 C7          0.6920   -1.9908    1.1132 C.ar      1 <0>        -0.1527
      9 C8          2.6036   -2.5527    4.2989 C.2       1 <0>         0.2013
     10 C9          2.2143   -3.7773    4.8924 C.2       1 <0>        -0.3139
     11 C10         3.1217   -4.0504    5.9074 C.2       1 <0>         0.1585
     12 N1          4.0174   -3.0398    5.9276 N.pl3     1 <0>        -0.4244
     13 N2          3.6829   -2.1267    4.9216 N.2       1 <0>        -0.2709
     14 H1          4.7693   -2.9620    6.5355 H         1 <0>         0.4472
     15 C11         2.7459   -5.3299    6.5555 C.ar      1 <0>         0.0124
     16 C12         3.3109   -6.0410    7.6038 C.ar      1 <0>        -0.1119
     17 C13         2.7442   -7.2388    8.0208 C.ar      1 <0>        -0.0638
     18 C14         1.6185   -7.7340    7.4016 C.ar      1 <0>        -0.1254
     19 C15         1.0335   -7.0337    6.3439 C.ar      1 <0>         0.2516
     20 C16         1.5952   -5.8306    5.9183 C.ar      1 <0>        -0.1982
     21 C17         1.2240   -4.8723    4.8528 C.2       1 <0>         0.4862
     22 O2          0.2825   -4.9682    4.0905 O.2       1 <0>        -0.4349
     23 N3         -0.1036   -7.5340    5.7185 N.am      1 <0>        -0.6756
     24 C18        -0.9269   -8.3681    6.3841 C.2       1 <0>         0.7082
     25 O3         -0.7330   -8.6026    7.5611 O.2       1 <0>        -0.5643
     26 N4         -1.9652   -8.9423    5.7447 N.am      1 <0>        -0.7330
     27 C19        -2.8601   -9.8489    6.4681 C.3       1 <0>         0.1783
     28 C20        -3.9298  -10.3510    5.5329 C.ar      1 <0>        -0.0689
     29 C21        -5.1244   -9.6627    5.3859 C.ar      1 <0>        -0.1526
     30 C22        -6.0822  -10.1535    4.5189 C.ar      1 <0>         0.1002
     31 N5         -5.8701  -11.2620    3.8369 N.ar      1 <0>        -0.4778
     32 C23        -4.7464  -11.9425    3.9516 C.ar      1 <0>         0.0997
     33 C24        -3.7405  -11.5093    4.7946 C.ar      1 <0>        -0.1530
     34 H2          1.0367    1.8181    0.0347 H         1 <0>         0.0577
     35 H3         -0.5181    1.8161   -0.8319 H         1 <0>         0.1022
     36 H4         -0.4912    1.7990    0.9477 H         1 <0>         0.0576
     37 H5          1.1925    1.2267    2.0371 H         1 <0>         0.1338
     38 H6          2.3252    0.1047    3.9089 H         1 <0>         0.1312
     39 H7          1.3700   -3.7045    2.1910 H         1 <0>         0.1358
     40 H8          0.2307   -2.5729    0.3290 H         1 <0>         0.1374
     41 H9          4.1941   -5.6627    8.0969 H         1 <0>         0.1351
     42 H10         3.1906   -7.7865    8.8376 H         1 <0>         0.1435
     43 H11         1.1869   -8.6664    7.7342 H         1 <0>         0.1634
     44 H12        -0.3041   -7.2827    4.8034 H         1 <0>         0.4189
     45 H13        -2.1199   -8.7552    4.8056 H         1 <0>         0.4030
     46 H14        -2.2884  -10.6933    6.8530 H         1 <0>         0.0857
     47 H15        -3.3241   -9.3159    7.2980 H         1 <0>         0.0852
     48 H16        -5.3042   -8.7546    5.9422 H         1 <0>         0.1386
     49 H17        -7.0153   -9.6232    4.3988 H         1 <0>         0.1597
     50 H18        -4.6088  -12.8465    3.3770 H         1 <0>         0.1595
     51 H19        -2.8204  -12.0682    4.8805 H         1 <0>         0.1385
@<TRIPOS>BOND
     1    1    2 1
     2    1   34 1
     3    1   35 1
     4    1   36 1
     5    2    3 1
     6    3    8 ar
     7    3    4 ar
     8    4    5 ar
     9    4   37 1
    10    5    6 ar
    11    5   38 1
    12    6    7 ar
    13    6    9 1
    14    7    8 ar
    15    7   39 1
    16    8   40 1
    17    9   10 1
    18    9   13 2
    19   10   21 1
    20   10   11 2
    21   11   15 1
    22   11   12 1
    23   12   14 1
    24   12   13 1
    25   15   20 ar
    26   15   16 ar
    27   16   17 ar
    28   16   41 1
    29   17   18 ar
    30   17   42 1
    31   18   19 ar
    32   18   43 1
    33   19   20 ar
    34   19   23 1
    35   20   21 1
    36   21   22 2
    37   23   24 am
    38   23   44 1
    39   24   25 2
    40   24   26 am
    41   26   27 1
    42   26   45 1
    43   27   28 1
    44   27   46 1
    45   27   47 1
    46   28   33 ar
    47   28   29 ar
    48   29   30 ar
    49   29   48 1
    50   30   31 ar
    51   30   49 1
    52   31   32 ar
    53   32   33 ar
    54   32   50 1
    55   33   51 1
@<TRIPOS>MOLECULE
CHEMBL434257
   48    50     0     0     0
SMALL
USER_CHARGES

@<TRIPOS>ATOM
      1 C1         -0.0187    1.5258    0.0104 C.3       1 <0>        -0.1540
      2 C2          0.0021   -0.0041    0.0020 C.3       1 <0>        -0.0880
      3 C3         -1.4333   -0.5336    0.0129 C.3       1 <0>        -0.1470
      4 C4          0.7182   -0.4975   -1.2568 C.3       1 <0>        -0.1612
      5 C5          2.1652   -0.0794   -1.2080 C.2       1 <0>         0.4023
      6 O1          2.5827    0.5511   -0.2597 O.2       1 <0>        -0.4660
      7 C6          3.0703   -0.4356   -2.3091 C.ar      1 <0>        -0.2032
      8 C7          2.5874   -1.1603   -3.4097 C.ar      1 <0>        -0.0876
      9 C8          3.4179   -1.4966   -4.4373 C.ar      1 <0>        -0.1436
     10 C9          4.7608   -1.1240   -4.4080 C.ar      1 <0>         0.1269
     11 C10         5.2559   -0.3976   -3.3101 C.ar      1 <0>        -0.0459
     12 C11         4.4117   -0.0489   -2.2653 C.ar      1 <0>        -0.0437
     13 C12         6.6881   -0.1661   -3.5848 C.2       1 <0>        -0.3595
     14 C13         6.9471   -0.7609   -4.8094 C.2       1 <0>         0.4911
     15 N1          5.8046   -1.3232   -5.2872 N.pl3     1 <0>        -0.6307
     16 H1          5.7337   -1.7989   -6.1296 H         1 <0>         0.4014
     17 O2          8.1473   -0.7793   -5.4316 O.3       1 <0>        -0.6321
     18 C14         7.6114    0.5252   -2.7625 C.2       1 <0>         0.2979
     19 N2          8.8586    0.6513   -3.1410 N.2       1 <0>        -0.5615
     20 C15         9.7503    1.3189   -2.3467 C.ar      1 <0>         0.2163
     21 C16         9.3934    2.5353   -1.7598 C.ar      1 <0>        -0.2162
     22 C17        10.2973    3.2027   -0.9599 C.ar      1 <0>         0.0065
     23 C18        11.5551    2.6701   -0.7381 C.ar      1 <0>        -0.7286
     24 C19        11.9154    1.4656   -1.3161 C.ar      1 <0>        -0.0005
     25 C20        11.0198    0.7846   -2.1141 C.ar      1 <0>        -0.1632
     26 S1         12.7035    3.5300    0.2849 S.o2      1 <0>         2.7042
     27 O3         13.9991    3.0956   -0.1050 O.2       1 <0>        -0.9757
     28 O4         12.3204    4.8982    0.2643 O.2       1 <0>        -0.9763
     29 N3         12.4724    2.9970    1.8357 N.pl3     1 <0>        -1.2536
     30 H2          1.0039    1.9031    0.0027 H         1 <0>         0.0719
     31 H3         -0.5459    1.8868   -0.8726 H         1 <0>         0.0482
     32 H4         -0.5289    1.8773    0.9072 H         1 <0>         0.0499
     33 H5          0.5293   -0.3651    0.8851 H         1 <0>         0.0745
     34 H6         -1.9605   -0.1726   -0.8702 H         1 <0>         0.0539
     35 H7         -1.4185   -1.6235    0.0069 H         1 <0>         0.0535
     36 H8         -1.9435   -0.1821    0.9097 H         1 <0>         0.0540
     37 H9          0.6556   -1.5845   -1.3079 H         1 <0>         0.0955
     38 H10         0.2444   -0.0644   -2.1377 H         1 <0>         0.0957
     39 H11         1.5488   -1.4544   -3.4428 H         1 <0>         0.1220
     40 H12         3.0334   -2.0547   -5.2782 H         1 <0>         0.1161
     41 H13         4.7895    0.5131   -1.4239 H         1 <0>         0.1232
     42 H14         7.2866    0.9482   -1.8234 H         1 <0>         0.0806
     43 H15         8.4123    2.9523   -1.9324 H         1 <0>         0.1241
     44 H16        10.0229    4.1434   -0.5058 H         1 <0>         0.1315
     45 H17        12.8987    1.0557   -1.1387 H         1 <0>         0.1343
     46 H18        11.3007   -0.1576   -2.5610 H         1 <0>         0.1310
     47 H19        11.7953    2.3282    2.0228 H         1 <0>         0.4165
     48 H20        13.0141    3.3538    2.5569 H         1 <0>         0.4152
@<TRIPOS>BOND
     1    1    2 1
     2    1   30 1
     3    1   31 1
     4    1   32 1
     5    2    3 1
     6    2    4 1
     7    2   33 1
     8    3   34 1
     9    3   35 1
    10    3   36 1
    11    4    5 1
    12    4   37 1
    13    4   38 1
    14    5    6 2
    15    5    7 1
    16    7   12 ar
    17    7    8 ar
    18    8    9 ar
    19    8   39 1
    20    9   10 ar
    21    9   40 1
    22   10   15 1
    23   10   11 ar
    24   11   12 ar
    25   11   13 1
    26   12   41 1
    27   13   14 2
    28   13   18 1
    29   14   15 1
    30   14   17 1
    31   15   16 1
    32   18   19 2
    33   18   42 1
    34   19   20 1
    35   20   25 ar
    36   20   21 ar
    37   21   22 ar
    38   21   43 1
    39   22   23 ar
    40   22   44 1
    41   23   24 ar
    42   23   26 1
    43   24   25 ar
    44   24   45 1
    45   25   46 1
    46   26   27 2
    47   26   28 2
    48   26   29 1
    49   29   47 1
    50   29   48 1
@<TRIPOS>MOLECULE
CHEMBL434257
   49    51     0     0     0
SMALL
USER_CHARGES

@<TRIPOS>ATOM
      1 C1         -0.0187    1.5258    0.0104 C.3       1 <0>        -0.1556
      2 C2          0.0021   -0.0041    0.0020 C.3       1 <0>        -0.0880
      3 C3         -1.4333   -0.5336    0.0129 C.3       1 <0>        -0.1492
      4 C4          0.7182   -0.4975   -1.2568 C.3       1 <0>        -0.1629
      5 C5          2.1652   -0.0794   -1.2080 C.2       1 <0>         0.3986
      6 O1          2.5827    0.5511   -0.2597 O.2       1 <0>        -0.4483
      7 C6          3.0703   -0.4356   -2.3091 C.ar      1 <0>        -0.1822
      8 C7          2.5874   -1.1603   -3.4097 C.ar      1 <0>        -0.0573
      9 C8          3.4179   -1.4966   -4.4373 C.ar      1 <0>        -0.1261
     10 C9          4.7608   -1.1240   -4.4080 C.ar      1 <0>         0.1251
     11 C10         5.2559   -0.3976   -3.3101 C.ar      1 <0>        -0.0809
     12 C11         4.4117   -0.0489   -2.2653 C.ar      1 <0>        -0.0108
     13 C12         6.6881   -0.1661   -3.5848 C.2       1 <0>        -0.1888
     14 C13         6.9471   -0.7609   -4.8094 C.2       1 <0>         0.3513
     15 N1          5.8046   -1.3232   -5.2872 N.pl3     1 <0>        -0.5832
     16 H1          5.7337   -1.7989   -6.1296 H         1 <0>         0.4226
     17 O2          8.1473   -0.7793   -5.4316 O.3       1 <0>        -0.4423
     18 C14         7.6114    0.5252   -2.7625 C.2       1 <0>         0.2615
     19 N2          8.8586    0.6513   -3.1410 N.2       1 <0>        -0.5074
     20 C15         9.7503    1.3189   -2.3467 C.ar      1 <0>         0.1622
     21 C16         9.3934    2.5353   -1.7598 C.ar      1 <0>        -0.1831
     22 C17        10.2973    3.2027   -0.9599 C.ar      1 <0>         0.0025
     23 C18        11.5551    2.6701   -0.7381 C.ar      1 <0>        -0.6943
     24 C19        11.9154    1.4656   -1.3161 C.ar      1 <0>        -0.0026
     25 C20        11.0198    0.7846   -2.1141 C.ar      1 <0>        -0.1354
     26 S1         12.7035    3.5300    0.2849 S.o2      1 <0>         2.7027
     27 O3         13.9991    3.0956   -0.1050 O.2       1 <0>        -0.9642
     28 O4         12.3204    4.8982    0.2643 O.2       1 <0>        -0.9643
     29 N3         12.4724    2.9970    1.8357 N.pl3     1 <0>        -1.2504
     30 H2          1.0039    1.9031    0.0027 H         1 <0>         0.0689
     31 H3         -0.5459    1.8868   -0.8726 H         1 <0>         0.0501
     32 H4         -0.5289    1.8773    0.9072 H         1 <0>         0.0544
     33 H5          0.5293   -0.3651    0.8851 H         1 <0>         0.0762
     34 H6         -1.9605   -0.1726   -0.8702 H         1 <0>         0.0555
     35 H7         -1.4185   -1.6235    0.0069 H         1 <0>         0.0550
     36 H8         -1.9435   -0.1821    0.9097 H         1 <0>         0.0579
     37 H9          0.6556   -1.5845   -1.3079 H         1 <0>         0.0999
     38 H10         0.2444   -0.0644   -2.1377 H         1 <0>         0.1002
     39 H11         1.5488   -1.4544   -3.4428 H         1 <0>         0.1401
     40 H12         3.0334   -2.0547   -5.2782 H         1 <0>         0.1328
     41 H13         4.7895    0.5131   -1.4239 H         1 <0>         0.1391
     42 H14         8.6973   -1.5410   -5.2028 H         1 <0>         0.4075
     43 H15         7.2866    0.9482   -1.8234 H         1 <0>         0.1129
     44 H16         8.4123    2.9523   -1.9324 H         1 <0>         0.1332
     45 H17        10.0229    4.1434   -0.5058 H         1 <0>         0.1445
     46 H18        12.8987    1.0557   -1.1387 H         1 <0>         0.1466
     47 H19        11.3007   -0.1576   -2.5610 H         1 <0>         0.1383
     48 H20        11.7953    2.3282    2.0228 H         1 <0>         0.4165
     49 H21        13.0141    3.3538    2.5569 H         1 <0>         0.4210
@<TRIPOS>BOND
     1    1    2 1
     2    1   30 1
     3    1   31 1
     4    1   32 1
     5    2    3 1
     6    2    4 1
     7    2   33 1
     8    3   34 1
     9    3   35 1
    10    3   36 1
    11    4    5 1
    12    4   37 1
    13    4   38 1
    14    5    6 2
    15    5    7 1
    16    7   12 ar
    17    7    8 ar
    18    8    9 ar
    19    8   39 1
    20    9   10 ar
    21    9   40 1
    22   10   15 1
    23   10   11 ar
    24   11   12 ar
    25   11   13 1
    26   12   41 1
    27   13   14 2
    28   13   18 1
    29   14   15 1
    30   14   17 1
    31   15   16 1
    32   17   42 1
    33   18   19 2
    34   18   43 1
    35   19   20 1
    36   20   25 ar
    37   20   21 ar
    38   21   22 ar
    39   21   44 1
    40   22   23 ar
    41   22   45 1
    42   23   24 ar
    43   23   26 1
    44   24   25 ar
    45   24   46 1
    46   25   47 1
    47   26   27 2
    48   26   28 2
    49   26   29 1
    50   29   48 1
    51   29   49 1
@<TRIPOS>MOLECULE
CHEMBL210765
   64    67     0     0     0
SMALL
USER_CHARGES

@<TRIPOS>ATOM
      1 C1         -0.1399    1.4430    0.1748 C.3       1 <0>        -0.0440
      2 N1         -0.1042   -0.0253    0.1455 N.4       1 <0>        -0.3883
      3 C2         -1.4768   -0.5482    0.1475 C.3       1 <0>        -0.0015
      4 C3         -1.4403   -2.0773    0.0980 C.3       1 <0>         0.0255
      5 N2         -0.7026   -2.5849    1.2634 N.3       1 <0>        -0.5445
      6 C4          0.6660   -2.0498    1.2884 C.3       1 <0>         0.0174
      7 C5          0.6122   -0.5210    1.3281 C.3       1 <0>        -0.0015
      8 C6         -0.6940   -4.0537    1.2822 C.3       1 <0>         0.0745
      9 C7         -0.1420   -4.5435    2.6225 C.3       1 <0>        -0.0784
     10 C8         -0.1333   -6.0503    2.6417 C.2       1 <0>         0.4808
     11 O1          0.3154   -6.7085    3.7307 O.3       1 <0>        -0.7192
     12 N3         -0.5548   -6.7111    1.6166 N.2       1 <0>        -1.0653
     13 S1         -0.5452   -8.3669    1.6377 S.o2      1 <0>         2.6523
     14 O2          0.8184   -8.7646    1.6782 O.2       1 <0>        -1.0061
     15 O3         -1.4847   -8.7660    2.6263 O.2       1 <0>        -1.0037
     16 C9         -1.1828   -8.9114    0.0880 C.ar      1 <0>        -0.6538
     17 C10        -2.5414   -9.1198   -0.0642 C.ar      1 <0>         0.0035
     18 C11        -3.0445   -9.5461   -1.2775 C.ar      1 <0>        -0.1574
     19 C12        -2.1842   -9.7656   -2.3459 C.ar      1 <0>         0.2085
     20 C13        -0.8199   -9.5554   -2.1896 C.ar      1 <0>        -0.1780
     21 C14        -0.3241   -9.1240   -0.9750 C.ar      1 <0>         0.0027
     22 N4         -2.6898  -10.1975   -3.5750 N.pl3     1 <0>        -0.6230
     23 C15        -4.0093   -9.9159   -3.9232 C.2       1 <0>         0.5256
     24 N5         -4.8502   -9.1481   -3.2188 N.2       1 <0>        -0.5818
     25 C16        -6.0143   -9.0902   -3.8275 C.2       1 <0>         0.5907
     26 N6         -5.9288   -9.8425   -4.9617 N.am      1 <0>        -0.3968
     27 N7         -4.6222  -10.3562   -4.9952 N.2       1 <0>        -0.3575
     28 C17        -6.9023  -10.0487   -5.8706 C.2       1 <0>         0.6210
     29 O4         -7.9629   -9.4639   -5.7684 O.2       1 <0>        -0.4725
     30 C18        -6.6809  -10.9832   -6.9885 C.ar      1 <0>        -0.1931
     31 C19        -6.9176  -12.3524   -6.8190 C.ar      1 <0>         0.1745
     32 C20        -6.7072  -13.2214   -7.8728 C.ar      1 <0>        -0.1609
     33 C21        -6.2636  -12.7419   -9.0920 C.ar      1 <0>        -0.0357
     34 C22        -6.0271  -11.3906   -9.2686 C.ar      1 <0>        -0.1617
     35 C23        -6.2380  -10.5062   -8.2278 C.ar      1 <0>         0.1743
     36 F1         -6.0122   -9.1859   -8.4043 F         1 <0>        -0.1214
     37 F2         -7.3500  -12.8230   -5.6287 F         1 <0>        -0.1204
     38 N8         -7.1239   -8.3934   -3.3958 N.pl3     1 <0>        -0.7940
     39 H1          0.8786    1.8314    0.1721 H         1 <0>         0.1210
     40 H2         -0.6715    1.8111   -0.7027 H         1 <0>         0.1203
     41 H3         -0.6533    1.7760    1.0769 H         1 <0>         0.1211
     42 H4         -1.9870   -0.2262    1.0553 H         1 <0>         0.1355
     43 H5         -2.0113   -0.1692   -0.7235 H         1 <0>         0.1302
     44 H6         -2.4585   -2.4661    0.1145 H         1 <0>         0.1226
     45 H7         -0.9422   -2.3998   -0.8164 H         1 <0>         0.0582
     46 H8          1.1846   -2.4186    2.1734 H         1 <0>         0.1272
     47 H9          1.1988   -2.3718    0.3937 H         1 <0>         0.0595
     48 H10         1.6264   -0.1217    1.3323 H         1 <0>         0.1313
     49 H11         0.0913   -0.1991    2.2299 H         1 <0>         0.1360
     50 H12        -1.7105   -4.4247    1.1505 H         1 <0>         0.0981
     51 H13        -0.0645   -4.4237    0.4729 H         1 <0>         0.0580
     52 H14         0.8744   -4.1725    2.7542 H         1 <0>         0.0745
     53 H15        -0.7716   -4.1734    3.4317 H         1 <0>         0.0881
     54 H16        -3.2097   -8.9492    0.7669 H         1 <0>         0.1390
     55 H17        -4.1056   -9.7089   -1.3956 H         1 <0>         0.1484
     56 H18        -0.1483   -9.7251   -3.0181 H         1 <0>         0.1304
     57 H19         0.7359   -8.9560   -0.8540 H         1 <0>         0.1400
     58 H20        -2.1223  -10.6933   -4.1857 H         1 <0>         0.4291
     59 H21        -6.8893  -14.2781   -7.7438 H         1 <0>         0.1543
     60 H22        -6.1006  -13.4269   -9.9110 H         1 <0>         0.1539
     61 H23        -5.6805  -11.0250  -10.2239 H         1 <0>         0.1539
     62 H24        -7.0862   -7.8843   -2.5709 H         1 <0>         0.4291
     63 H25        -7.9417   -8.4125   -3.9170 H         1 <0>         0.4276
     64 H26         0.3715   -0.3333   -0.6893 H         1 <0>         0.4214
@<TRIPOS>BOND
     1    1    2 1
     2    1   39 1
     3    1   40 1
     4    1   41 1
     5    2    7 1
     6    2    3 1
     7    2   64 1
     8    3    4 1
     9    3   42 1
    10    3   43 1
    11    4    5 1
    12    4   44 1
    13    4   45 1
    14    5    6 1
    15    5    8 1
    16    6    7 1
    17    6   46 1
    18    6   47 1
    19    7   48 1
    20    7   49 1
    21    8    9 1
    22    8   50 1
    23    8   51 1
    24    9   10 1
    25    9   52 1
    26    9   53 1
    27   10   11 1
    28   10   12 2
    29   12   13 1
    30   13   14 2
    31   13   15 2
    32   13   16 1
    33   16   21 ar
    34   16   17 ar
    35   17   18 ar
    36   17   54 1
    37   18   19 ar
    38   18   55 1
    39   19   20 ar
    40   19   22 1
    41   20   21 ar
    42   20   56 1
    43   21   57 1
    44   22   23 1
    45   22   58 1
    46   23   27 2
    47   23   24 1
    48   24   25 2
    49   25   26 1
    50   25   38 1
    51   26   27 1
    52   26   28 am
    53   28   29 2
    54   28   30 1
    55   30   35 ar
    56   30   31 ar
    57   31   32 ar
    58   31   37 1
    59   32   33 ar
    60   32   59 1
    61   33   34 ar
    62   33   60 1
    63   34   35 ar
    64   34   61 1
    65   35   36 1
    66   38   62 1
    67   38   63 1
@<TRIPOS>MOLECULE
CHEMBL210765
   64    67     0     0     0
SMALL
USER_CHARGES

@<TRIPOS>ATOM
      1 C1         -0.1344    1.4317    0.1753 C.3       1 <0>         0.0214
      2 N1         -0.0992   -0.0366    0.1456 N.3       1 <0>        -0.5443
      3 C2         -1.4562   -0.5944    0.0597 C.3       1 <0>         0.0263
      4 C3         -1.3728   -2.1198   -0.0289 C.3       1 <0>        -0.0006
      5 N2         -0.6844   -2.6425    1.1587 N.4       1 <0>        -0.3895
      6 C4          0.6777   -2.0958    1.2174 C.3       1 <0>        -0.0087
      7 C5          0.6113   -0.5702    1.3164 C.3       1 <0>         0.0270
      8 C6         -0.6205   -4.1081    1.0819 C.3       1 <0>         0.0088
      9 C7         -0.0161   -4.6607    2.3743 C.3       1 <0>        -0.1086
     10 C8          0.0493   -6.1642    2.2955 C.2       1 <0>         0.4843
     11 O1          0.5503   -6.8727    3.3287 O.3       1 <0>        -0.7020
     12 N3         -0.3737   -6.7740    1.2399 N.2       1 <0>        -1.0744
     13 S1         -0.3017   -8.4262    1.1534 S.o2      1 <0>         2.6617
     14 O2          1.0764   -8.7723    1.1360 O.2       1 <0>        -0.9999
     15 O3         -1.1998   -8.9238    2.1357 O.2       1 <0>        -0.9994
     16 C9         -0.9585   -8.8949   -0.4130 C.ar      1 <0>        -0.6598
     17 C10        -2.3118   -9.1458   -0.5465 C.ar      1 <0>         0.0033
     18 C11        -2.8300   -9.5129   -1.7729 C.ar      1 <0>        -0.1578
     19 C12        -1.9900   -9.6301   -2.8731 C.ar      1 <0>         0.2135
     20 C13        -0.6309   -9.3773   -2.7354 C.ar      1 <0>        -0.1776
     21 C14        -0.1203   -9.0055   -1.5074 C.ar      1 <0>         0.0039
     22 N4         -2.5108  -10.0018   -4.1154 N.pl3     1 <0>        -0.6232
     23 C15        -3.8484   -9.7501   -4.4136 C.2       1 <0>         0.5241
     24 N5         -4.6989   -9.0622   -3.6414 N.2       1 <0>        -0.5834
     25 C16        -5.8798   -9.0108   -4.2176 C.2       1 <0>         0.5912
     26 N6         -5.7956   -9.6852   -5.3999 N.am      1 <0>        -0.3966
     27 N7         -4.4720  -10.1445   -5.4973 N.2       1 <0>        -0.3549
     28 C17        -6.7840   -9.8706   -6.2972 C.2       1 <0>         0.6213
     29 O4         -7.8626   -9.3352   -6.1325 O.2       1 <0>        -0.4712
     30 C18        -6.5568  -10.7224   -7.4782 C.ar      1 <0>        -0.1939
     31 C19        -6.7378  -12.1078   -7.3924 C.ar      1 <0>         0.1743
     32 C20        -6.5225  -12.8989   -8.5050 C.ar      1 <0>        -0.1608
     33 C21        -6.1288  -12.3255   -9.7006 C.ar      1 <0>        -0.0352
     34 C22        -5.9475  -10.9575   -9.7946 C.ar      1 <0>        -0.1614
     35 C23        -6.1643  -10.1503   -8.6940 C.ar      1 <0>         0.1746
     36 F1         -5.9925   -8.8136   -8.7897 F         1 <0>        -0.1211
     37 F2         -7.1214  -12.6700   -6.2253 F         1 <0>        -0.1206
     38 N8         -7.0030   -8.3867   -3.7157 N.pl3     1 <0>        -0.7937
     39 H1          0.8842    1.8197    0.1727 H         1 <0>         0.0812
     40 H2         -0.6658    1.8002   -0.7022 H         1 <0>         0.0801
     41 H3         -0.6478    1.7646    1.0773 H         1 <0>         0.0365
     42 H4         -2.0224   -0.3121    0.9473 H         1 <0>         0.0578
     43 H5         -1.9538   -0.2052   -0.8286 H         1 <0>         0.1187
     44 H6         -2.3789   -2.5364   -0.0784 H         1 <0>         0.1350
     45 H7         -0.8183   -2.4020   -0.9239 H         1 <0>         0.1365
     46 H8          1.1918   -2.4946    2.0919 H         1 <0>         0.1386
     47 H9          1.2217   -2.3781    0.3161 H         1 <0>         0.1376
     48 H10         1.6221   -0.1633    1.3450 H         1 <0>         0.1197
     49 H11         0.0792   -0.2874    2.2247 H         1 <0>         0.0585
     50 H12        -1.6255   -4.5092    0.9503 H         1 <0>         0.1408
     51 H13         0.0012   -4.4009    0.2358 H         1 <0>         0.1400
     52 H14         0.9888   -4.2596    2.5059 H         1 <0>         0.0979
     53 H15        -0.6379   -4.3679    3.2204 H         1 <0>         0.0979
     54 H16        -2.9643   -9.0548    0.3093 H         1 <0>         0.1386
     55 H17        -3.8870   -9.7090   -1.8763 H         1 <0>         0.1493
     56 H18         0.0249   -9.4675   -3.5888 H         1 <0>         0.1319
     57 H19         0.9355   -8.8045   -1.4007 H         1 <0>         0.1409
     58 H20        -1.9412  -10.4351   -4.7701 H         1 <0>         0.4299
     59 H21        -6.6616  -13.9679   -8.4406 H         1 <0>         0.1545
     60 H22        -5.9616  -12.9498  -10.5658 H         1 <0>         0.1542
     61 H23        -5.6396  -10.5184  -10.7321 H         1 <0>         0.1543
     62 H24        -6.9630   -7.9303   -2.8607 H         1 <0>         0.4288
     63 H25        -7.8327   -8.4043   -4.2178 H         1 <0>         0.4281
     64 H26        -1.1915   -2.3713    1.9877 H         1 <0>         0.4157
@<TRIPOS>BOND
     1    1    2 1
     2    1   39 1
     3    1   40 1
     4    1   41 1
     5    2    7 1
     6    2    3 1
     7    3    4 1
     8    3   42 1
     9    3   43 1
    10    4    5 1
    11    4   44 1
    12    4   45 1
    13    5    6 1
    14    5    8 1
    15    5   64 1
    16    6    7 1
    17    6   46 1
    18    6   47 1
    19    7   48 1
    20    7   49 1
    21    8    9 1
    22    8   50 1
    23    8   51 1
    24    9   10 1
    25    9   52 1
    26    9   53 1
    27   10   11 1
    28   10   12 2
    29   12   13 1
    30   13   14 2
    31   13   15 2
    32   13   16 1
    33   16   21 ar
    34   16   17 ar
    35   17   18 ar
    36   17   54 1
    37   18   19 ar
    38   18   55 1
    39   19   20 ar
    40   19   22 1
    41   20   21 ar
    42   20   56 1
    43   21   57 1
    44   22   23 1
    45   22   58 1
    46   23   27 2
    47   23   24 1
    48   24   25 2
    49   25   26 1
    50   25   38 1
    51   26   27 1
    52   26   28 am
    53   28   29 2
    54   28   30 1
    55   30   35 ar
    56   30   31 ar
    57   31   32 ar
    58   31   37 1
    59   32   33 ar
    60   32   59 1
    61   33   34 ar
    62   33   60 1
    63   34   35 ar
    64   34   61 1
    65   35   36 1
    66   38   62 1
    67   38   63 1
@<TRIPOS>MOLECULE
CHEMBL210765
   65    68     0     0     0
SMALL
USER_CHARGES

@<TRIPOS>ATOM
      1 C1         -0.2197    1.3938   -0.0286 C.3       1 <0>        -0.0458
      2 N1         -0.1739   -0.0745   -0.0313 N.4       1 <0>        -0.3890
      3 C2         -1.5428   -0.6068   -0.0196 C.3       1 <0>        -0.0027
      4 C3         -1.4959   -2.1362   -0.0415 C.3       1 <0>         0.0261
      5 N2         -0.7546   -2.6175    1.1329 N.3       1 <0>        -0.5401
      6 C4          0.6103   -2.0727    1.1479 C.3       1 <0>         0.0167
      7 C5          0.5460   -0.5438    1.1599 C.3       1 <0>        -0.0026
      8 C6         -0.7359   -4.0857    1.1782 C.3       1 <0>         0.0646
      9 C7         -0.1805   -4.5473    2.5270 C.3       1 <0>        -0.1431
     10 C8         -0.1613   -6.0535    2.5735 C.2       1 <0>         0.5393
     11 O1         -0.5534   -6.6946    1.6215 O.2       1 <0>        -0.4848
     12 N3          0.2914   -6.6880    3.6729 N.am      1 <0>        -1.0549
     13 S1          0.3124   -8.3431    3.7240 S.o2      1 <0>         2.6761
     14 O2          0.8608   -8.7036    4.9844 O.2       1 <0>        -0.9387
     15 O3         -0.9716   -8.7789    3.2991 O.2       1 <0>        -0.9256
     16 C9          1.4589   -8.8875    2.5018 C.ar      1 <0>        -0.7068
     17 C10         1.0272   -9.1314    1.2109 C.ar      1 <0>         0.0269
     18 C11         1.9232   -9.5577    0.2504 C.ar      1 <0>        -0.1608
     19 C12         3.2596   -9.7416    0.5822 C.ar      1 <0>         0.2414
     20 C13         3.6899   -9.4956    1.8800 C.ar      1 <0>        -0.1800
     21 C14         2.7896   -9.0644    2.8343 C.ar      1 <0>         0.0095
     22 N4          4.1689  -10.1733   -0.3871 N.pl3     1 <0>        -0.6225
     23 C15         3.9205   -9.9242   -1.7353 C.2       1 <0>         0.5167
     24 N5          2.9102   -9.1878   -2.2146 N.2       1 <0>        -0.5881
     25 C16         2.9685   -9.1551   -3.5279 C.2       1 <0>         0.5929
     26 N6          4.0486   -9.8920   -3.9150 N.am      1 <0>        -0.3953
     27 N7          4.6424  -10.3692   -2.7352 N.2       1 <0>        -0.3428
     28 C17         4.4652  -10.1147   -5.1773 C.2       1 <0>         0.6227
     29 O4          3.9117   -9.5604   -6.1066 O.2       1 <0>        -0.4662
     30 C18         5.5920  -11.0301   -5.4307 C.ar      1 <0>        -0.1984
     31 C19         5.3682  -12.4072   -5.5458 C.ar      1 <0>         0.1742
     32 C20         6.4309  -13.2582   -5.7835 C.ar      1 <0>        -0.1593
     33 C21         7.7126  -12.7530   -5.9071 C.ar      1 <0>        -0.0324
     34 C22         7.9431  -11.3938   -5.7948 C.ar      1 <0>        -0.1600
     35 C23         6.8917  -10.5272   -5.5635 C.ar      1 <0>         0.1742
     36 F1          7.1182   -9.1993   -5.4602 F         1 <0>        -0.1219
     37 F2          4.1173  -12.9028   -5.4245 F         1 <0>        -0.1208
     38 N8          2.0932   -8.4940   -4.3644 N.pl3     1 <0>        -0.7930
     39 H1          0.7961    1.7890   -0.0386 H         1 <0>         0.1241
     40 H2         -0.7539    1.7423   -0.9125 H         1 <0>         0.1245
     41 H3         -0.7353    1.7395    0.8674 H         1 <0>         0.1236
     42 H4         -2.0552   -0.2719    0.8823 H         1 <0>         0.1387
     43 H5         -2.0800   -0.2472   -0.8973 H         1 <0>         0.1368
     44 H6         -2.5113   -2.5316   -0.0177 H         1 <0>         0.1267
     45 H7         -0.9956   -2.4717   -0.9499 H         1 <0>         0.0632
     46 H8          1.1315   -2.4218    2.0393 H         1 <0>         0.1245
     47 H9          1.1453   -2.4072    0.2590 H         1 <0>         0.0632
     48 H10         1.5575   -0.1376    1.1567 H         1 <0>         0.1359
     49 H11         0.0230   -0.2093    2.0558 H         1 <0>         0.1386
     50 H12        -1.7498   -4.4660    1.0534 H         1 <0>         0.1027
     51 H13        -0.1039   -4.4660    0.3756 H         1 <0>         0.0608
     52 H14         0.8334   -4.1670    2.6518 H         1 <0>         0.1045
     53 H15        -0.8125   -4.1670    3.3295 H         1 <0>         0.1195
     54 H16         0.6049   -6.1753    4.4343 H         1 <0>         0.4359
     55 H17        -0.0120   -8.9886    0.9537 H         1 <0>         0.1493
     56 H18         1.5853   -9.7484   -0.7575 H         1 <0>         0.1554
     57 H19         4.7282   -9.6375    2.1413 H         1 <0>         0.1395
     58 H20         3.1243   -8.8687    3.8423 H         1 <0>         0.1456
     59 H21         4.9729  -10.6464   -0.1214 H         1 <0>         0.4337
     60 H22         6.2601  -14.3208   -5.8726 H         1 <0>         0.1560
     61 H23         8.5384  -13.4239   -6.0921 H         1 <0>         0.1561
     62 H24         8.9472  -11.0081   -5.8924 H         1 <0>         0.1556
     63 H25         1.3507   -7.9933   -3.9916 H         1 <0>         0.4277
     64 H26         2.2202   -8.5297   -5.3254 H         1 <0>         0.4297
     65 H27         0.3038   -0.3944   -0.8605 H         1 <0>         0.4227
@<TRIPOS>BOND
     1    1    2 1
     2    1   39 1
     3    1   40 1
     4    1   41 1
     5    2    7 1
     6    2    3 1
     7    2   65 1
     8    3    4 1
     9    3   42 1
    10    3   43 1
    11    4    5 1
    12    4   44 1
    13    4   45 1
    14    5    6 1
    15    5    8 1
    16    6    7 1
    17    6   46 1
    18    6   47 1
    19    7   48 1
    20    7   49 1
    21    8    9 1
    22    8   50 1
    23    8   51 1
    24    9   10 1
    25    9   52 1
    26    9   53 1
    27   10   11 2
    28   10   12 am
    29   12   13 1
    30   12   54 1
    31   13   14 2
    32   13   15 2
    33   13   16 1
    34   16   21 ar
    35   16   17 ar
    36   17   18 ar
    37   17   55 1
    38   18   19 ar
    39   18   56 1
    40   19   20 ar
    41   19   22 1
    42   20   21 ar
    43   20   57 1
    44   21   58 1
    45   22   23 1
    46   22   59 1
    47   23   27 2
    48   23   24 1
    49   24   25 2
    50   25   26 1
    51   25   38 1
    52   26   27 1
    53   26   28 am
    54   28   29 2
    55   28   30 1
    56   30   35 ar
    57   30   31 ar
    58   31   32 ar
    59   31   37 1
    60   32   33 ar
    61   32   60 1
    62   33   34 ar
    63   33   61 1
    64   34   35 ar
    65   34   62 1
    66   35   36 1
    67   38   63 1
    68   38   64 1
@<TRIPOS>MOLECULE
CHEMBL148977
   34    36     0     0     0
SMALL
USER_CHARGES

@<TRIPOS>ATOM
      1 C1         -0.0512    1.5187    0.0352 C.3       1 <0>        -0.1441
      2 C2         -0.0185   -0.0109    0.0183 C.3       1 <0>        -0.0228
      3 C3          0.7279   -0.5188    1.2535 C.3       1 <0>        -0.1438
      4 C4         -1.4282   -0.5436    0.0288 C.2       1 <0>         0.1607
      5 C5         -2.0078   -1.3615   -0.9568 C.2       1 <0>        -0.3213
      6 C6         -3.3138   -1.6229   -0.5623 C.2       1 <0>         0.1556
      7 N1         -3.5082   -0.9867    0.6128 N.pl3     1 <0>        -0.4281
      8 H1         -4.3287   -0.9879    1.1302 H         1 <0>         0.4458
      9 N2         -2.3222   -0.3296    0.9593 N.2       1 <0>        -0.2735
     10 C7         -3.9602   -2.4855   -1.5803 C.ar      1 <0>         0.0131
     11 C8         -5.2350   -3.0246   -1.6659 C.ar      1 <0>        -0.1129
     12 C9         -5.5877   -3.8156   -2.7523 C.ar      1 <0>        -0.0637
     13 C10        -4.6799   -4.0738   -3.7545 C.ar      1 <0>        -0.1263
     14 C11        -3.3901   -3.5410   -3.6878 C.ar      1 <0>         0.2503
     15 C12        -3.0272   -2.7456   -2.6015 C.ar      1 <0>        -0.1995
     16 C13        -1.7705   -2.0493   -2.2451 C.2       1 <0>         0.4878
     17 O1         -0.7400   -2.0434   -2.8885 O.2       1 <0>        -0.4395
     18 N3         -2.4729   -3.8023   -4.6999 N.am      1 <0>        -0.6762
     19 C14        -2.9057   -4.1132   -5.9378 C.2       1 <0>         0.7083
     20 O2         -4.0927   -4.0655   -6.1966 O.2       1 <0>        -0.5702
     21 N4         -2.0227   -4.4768   -6.8889 N.am      1 <0>        -0.8547
     22 H2          0.9684    1.9040    0.0276 H         1 <0>         0.0666
     23 H3         -0.5829    1.8805   -0.8448 H         1 <0>         0.0565
     24 H4         -0.5623    1.8612    0.9349 H         1 <0>         0.0627
     25 H5          0.4927   -0.3534   -0.8814 H         1 <0>         0.0973
     26 H6          0.2167   -0.1762    2.1532 H         1 <0>         0.0626
     27 H7          0.7511   -1.6084    1.2415 H         1 <0>         0.0565
     28 H8          1.7475   -0.1334    1.2459 H         1 <0>         0.0666
     29 H9         -5.9557   -2.8292   -0.8856 H         1 <0>         0.1348
     30 H10        -6.5825   -4.2317   -2.8109 H         1 <0>         0.1436
     31 H11        -4.9653   -4.6901   -4.5942 H         1 <0>         0.1635
     32 H12        -1.5216   -3.7608   -4.5149 H         1 <0>         0.4190
     33 H13        -1.0757   -4.5148   -6.6825 H         1 <0>         0.4029
     34 H14        -2.3343   -4.7005   -7.7799 H         1 <0>         0.4225
@<TRIPOS>BOND
     1    1    2 1
     2    1   22 1
     3    1   23 1
     4    1   24 1
     5    2    3 1
     6    2    4 1
     7    2   25 1
     8    3   26 1
     9    3   27 1
    10    3   28 1
    11    4    9 2
    12    4    5 1
    13    5   16 1
    14    5    6 2
    15    6    7 1
    16    6   10 1
    17    7    8 1
    18    7    9 1
    19   10   15 ar
    20   10   11 ar
    21   11   12 ar
    22   11   29 1
    23   12   13 ar
    24   12   30 1
    25   13   14 ar
    26   13   31 1
    27   14   15 ar
    28   14   18 1
    29   15   16 1
    30   16   17 2
    31   18   19 am
    32   18   32 1
    33   19   20 2
    34   19   21 am
    35   21   33 1
    36   21   34 1
@<TRIPOS>MOLECULE
CHEMBL148977
   34    36     0     0     0
SMALL
USER_CHARGES

@<TRIPOS>ATOM
      1 C1         -0.0527    1.5223    0.0325 C.3       1 <0>        -0.1498
      2 C2         -0.0194   -0.0073    0.0162 C.3       1 <0>        -0.0451
      3 C3          0.7272   -0.5144    1.2516 C.3       1 <0>        -0.1496
      4 C4         -1.4289   -0.5406    0.0270 C.2       1 <0>         0.2011
      5 C5         -1.9949   -1.3297   -0.9291 C.2       1 <0>        -0.3435
      6 C6         -3.3699   -1.5978   -0.4975 C.2       1 <0>         0.1261
      7 N1         -3.5395   -0.9790    0.6447 N.2       1 <0>        -0.2381
      8 H1         -2.2110    0.2012    1.7886 H         1 <0>         0.4464
      9 N2         -2.3501   -0.3262    0.9865 N.pl3     1 <0>        -0.4662
     10 C7         -4.0042   -2.4571   -1.5273 C.ar      1 <0>         0.0431
     11 C8         -5.2801   -2.9985   -1.6171 C.ar      1 <0>        -0.1110
     12 C9         -5.6314   -3.7826   -2.7039 C.ar      1 <0>        -0.0609
     13 C10        -4.7207   -4.0355   -3.7088 C.ar      1 <0>        -0.1321
     14 C11        -3.4368   -3.5040   -3.6405 C.ar      1 <0>         0.2456
     15 C12        -3.0694   -2.7094   -2.5467 C.ar      1 <0>        -0.1987
     16 C13        -1.8034   -2.0256   -2.2148 C.2       1 <0>         0.4954
     17 O1         -0.7864   -2.0352   -2.8812 O.2       1 <0>        -0.4517
     18 N3         -2.5200   -3.7612   -4.6556 N.am      1 <0>        -0.6764
     19 C14        -2.9542   -4.0668   -5.8943 C.2       1 <0>         0.7078
     20 O2         -4.1415   -4.0181   -6.1515 O.2       1 <0>        -0.5703
     21 N4         -2.0723   -4.4264   -6.8479 N.am      1 <0>        -0.8558
     22 H2          0.9667    1.9080    0.0246 H         1 <0>         0.0745
     23 H3         -0.5846    1.8835   -0.8477 H         1 <0>         0.0638
     24 H4         -0.5640    1.8650    0.9321 H         1 <0>         0.0564
     25 H5          0.4918   -0.3500   -0.8834 H         1 <0>         0.1097
     26 H6          0.2160   -0.1716    2.1512 H         1 <0>         0.0563
     27 H7          0.7509   -1.6040    1.2400 H         1 <0>         0.0638
     28 H8          1.7467   -0.1286    1.2438 H         1 <0>         0.0745
     29 H9         -6.0014   -2.8077   -0.8363 H         1 <0>         0.1377
     30 H10        -6.6258   -4.1995   -2.7646 H         1 <0>         0.1427
     31 H11        -5.0052   -4.6485   -4.5512 H         1 <0>         0.1622
     32 H12        -1.5685   -3.7205   -4.4715 H         1 <0>         0.4182
     33 H13        -1.1251   -4.4652   -6.6427 H         1 <0>         0.4022
     34 H14        -2.3849   -4.6463   -7.7395 H         1 <0>         0.4218
@<TRIPOS>BOND
     1    1    2 1
     2    1   22 1
     3    1   23 1
     4    1   24 1
     5    2    3 1
     6    2    4 1
     7    2   25 1
     8    3   26 1
     9    3   27 1
    10    3   28 1
    11    4    5 2
    12    4    9 1
    13    5   16 1
    14    5    6 1
    15    6   10 1
    16    6    7 2
    17    7    9 1
    18    8    9 1
    19   10   15 ar
    20   10   11 ar
    21   11   12 ar
    22   11   29 1
    23   12   13 ar
    24   12   30 1
    25   13   14 ar
    26   13   31 1
    27   14   15 ar
    28   14   18 1
    29   15   16 1
    30   16   17 2
    31   18   19 am
    32   18   32 1
    33   19   20 2
    34   19   21 am
    35   21   33 1
    36   21   34 1
@<TRIPOS>MOLECULE
CHEMBL365608
   43    46     0     0     0
SMALL
USER_CHARGES

@<TRIPOS>ATOM
      1 C1          0.0546    1.2015   -0.0021 C.2       1 <0>        -0.1254
      2 C2          0.0347   -0.1369   -0.0120 C.2       1 <0>        -0.0539
      3 C3         -1.2605   -0.8593   -0.0011 C.2       1 <0>        -0.0696
      4 C4         -1.5700   -1.7409    1.0568 C.2       1 <0>        -0.0713
      5 C5         -2.7620   -2.3972    1.0553 C.2       1 <0>        -0.0876
      6 C6         -3.6691   -2.1882   -0.0004 C.2       1 <0>         0.2787
      7 N1         -4.8785   -2.6961   -0.2371 N.2       1 <0>        -0.5296
      8 C7         -5.3635   -2.2024   -1.3701 C.2       1 <0>         0.4118
      9 C8         -4.4130   -1.3232   -1.8985 C.2       1 <0>        -0.2399
     10 N2         -3.3449   -1.3295   -1.0123 N.pl3     1 <0>        -0.3098
     11 C9         -2.1586   -0.6691   -1.0111 C.2       1 <0>         0.0807
     12 C10        -4.5183   -0.5807   -3.0909 C.2       1 <0>         0.4909
     13 O1         -4.1778   -1.0781   -4.1511 O.2       1 <0>        -0.4117
     14 C11        -5.0414    0.8011   -3.0572 C.ar      1 <0>        -0.2480
     15 C12        -5.3165    1.4190   -1.8334 C.ar      1 <0>         0.1843
     16 C13        -5.8051    2.7117   -1.8106 C.ar      1 <0>        -0.1798
     17 C14        -6.0219    3.3941   -2.9940 C.ar      1 <0>        -0.0242
     18 C15        -5.7524    2.7902   -4.2087 C.ar      1 <0>        -0.1795
     19 C16        -5.2584    1.4998   -4.2488 C.ar      1 <0>         0.1881
     20 F1         -4.9909    0.9135   -5.4362 F         1 <0>        -0.1071
     21 F2         -5.1058    0.7540   -0.6764 F         1 <0>        -0.1115
     22 N3         -6.5950   -2.5054   -1.9308 N.pl3     1 <0>        -0.8340
     23 C17         1.3071   -0.8970   -0.0340 C.ar      1 <0>        -0.1209
     24 C18         1.8966   -1.2424   -1.2512 C.ar      1 <0>         0.1439
     25 C19         3.0834   -1.9514   -1.2644 C.ar      1 <0>        -0.1630
     26 C20         3.6862   -2.3188   -0.0752 C.ar      1 <0>        -0.0556
     27 C21         3.1077   -1.9800    1.1345 C.ar      1 <0>        -0.1629
     28 C22         1.9243   -1.2658    1.1624 C.ar      1 <0>         0.1426
     29 F3          1.3635   -0.9307    2.3450 F         1 <0>        -0.1238
     30 F4          1.3085   -0.8850   -2.4139 F         1 <0>        -0.1246
     31 H1          0.9978    1.7276   -0.0100 H         1 <0>         0.1149
     32 H2         -0.8725    1.7553    0.0095 H         1 <0>         0.1149
     33 H3         -0.8659   -1.8936    1.8614 H         1 <0>         0.1462
     34 H4         -3.0104   -3.0746    1.8589 H         1 <0>         0.1593
     35 H5         -1.9221    0.0089   -1.8178 H         1 <0>         0.1596
     36 H6         -6.0184    3.1902   -0.8662 H         1 <0>         0.1507
     37 H7         -6.4042    4.4039   -2.9693 H         1 <0>         0.1524
     38 H8         -5.9248    3.3296   -5.1283 H         1 <0>         0.1525
     39 H9         -7.1577   -3.1847   -1.5272 H         1 <0>         0.4126
     40 H10        -6.8938   -2.0382   -2.7266 H         1 <0>         0.4091
     41 H11         3.5405   -2.2193   -2.2054 H         1 <0>         0.1462
     42 H12         4.6129   -2.8733   -0.0912 H         1 <0>         0.1470
     43 H13         3.5839   -2.2701    2.0594 H         1 <0>         0.1470
@<TRIPOS>BOND
     1    1    2 2
     2    1   31 1
     3    1   32 1
     4    2    3 1
     5    2   23 1
     6    3   11 2
     7    3    4 1
     8    4    5 2
     9    4   33 1
    10    5    6 1
    11    5   34 1
    12    6   10 1
    13    6    7 2
    14    7    8 1
    15    8    9 2
    16    8   22 1
    17    9   10 1
    18    9   12 1
    19   10   11 1
    20   11   35 1
    21   12   13 2
    22   12   14 1
    23   14   19 ar
    24   14   15 ar
    25   15   16 ar
    26   15   21 1
    27   16   17 ar
    28   16   36 1
    29   17   18 ar
    30   17   37 1
    31   18   19 ar
    32   18   38 1
    33   19   20 1
    34   22   39 1
    35   22   40 1
    36   23   28 ar
    37   23   24 ar
    38   24   25 ar
    39   24   30 1
    40   25   26 ar
    41   25   41 1
    42   26   27 ar
    43   26   42 1
    44   27   28 ar
    45   27   43 1
    46   28   29 1
@<TRIPOS>MOLECULE
CHEMBL260928
   33    36     0     0     0
SMALL
USER_CHARGES

@<TRIPOS>ATOM
      1 C1         -0.0169    1.3960    0.0097 C.ar      1 <0>        -0.1501
      2 C2          1.1475    2.1033    0.0024 C.ar      1 <0>        -0.0339
      3 C3          2.3739    1.4302   -0.0129 C.ar      1 <0>        -0.1838
      4 C4          2.4037    0.0217   -0.0208 C.ar      1 <0>         0.1510
      5 C5          1.2088   -0.6896   -0.0132 C.ar      1 <0>        -0.1393
      6 C6          0.0021   -0.0041    0.0020 C.ar      1 <0>         0.0307
      7 C7         -1.2747   -0.7589    0.0107 C.2       1 <0>        -0.0875
      8 C8         -2.4960   -0.0916    0.0211 C.2       1 <0>        -0.1480
      9 C9         -3.6386   -0.8144    0.0288 C.2       1 <0>        -0.1694
     10 S1         -3.0261   -2.4907    0.0215 S.3       1 <0>         0.0513
     11 C10        -1.2788   -2.1260    0.0029 C.2       1 <0>        -0.1618
     12 N1          3.7245   -0.3472   -0.0354 N.pl3     1 <0>        -0.5042
     13 H1          4.0531   -1.2598   -0.0435 H         1 <0>         0.4444
     14 N2          4.5222    0.8014   -0.0369 N.2       1 <0>        -0.2334
     15 C11         3.7698    1.8695   -0.0239 C.2       1 <0>         0.3155
     16 N3          4.2182    3.1952   -0.0211 N.am      1 <0>        -0.6314
     17 C12         5.5397    3.4597   -0.0323 C.2       1 <0>         0.5364
     18 O1          6.3404    2.5487   -0.0448 O.2       1 <0>        -0.4863
     19 C13         6.0225    4.8872   -0.0292 C.3       1 <0>        -0.1961
     20 C14         6.7053    5.4048   -1.2968 C.3       1 <0>        -0.1498
     21 C15         7.5344    5.1217   -0.0424 C.3       1 <0>        -0.1438
     22 H2         -0.9616    1.9190    0.0261 H         1 <0>         0.1318
     23 H3          1.1239    3.1831    0.0081 H         1 <0>         0.1290
     24 H4          1.2197   -1.7695   -0.0192 H         1 <0>         0.1308
     25 H5         -2.5306    0.9878    0.0234 H         1 <0>         0.1401
     26 H6         -4.6609   -0.4663    0.0373 H         1 <0>         0.1890
     27 H7         -0.4419   -2.8084   -0.0099 H         1 <0>         0.1880
     28 H8          3.5778    3.9237   -0.0110 H         1 <0>         0.4231
     29 H9          5.4091    5.5897    0.5351 H         1 <0>         0.1301
     30 H10         6.8054    4.7127   -2.1329 H         1 <0>         0.1011
     31 H11         6.5412    6.4480   -1.5667 H         1 <0>         0.1090
     32 H12         7.9156    5.9787    0.5129 H         1 <0>         0.1077
     33 H13         8.1798    4.2434   -0.0533 H         1 <0>         0.1098
@<TRIPOS>BOND
     1    1    6 ar
     2    1    2 ar
     3    1   22 1
     4    2    3 ar
     5    2   23 1
     6    3   15 1
     7    3    4 ar
     8    4    5 ar
     9    4   12 1
    10    5    6 ar
    11    5   24 1
    12    6    7 1
    13    7   11 2
    14    7    8 1
    15    8    9 2
    16    8   25 1
    17    9   10 1
    18    9   26 1
    19   10   11 1
    20   11   27 1
    21   12   13 1
    22   12   14 1
    23   14   15 2
    24   15   16 1
    25   16   17 am
    26   16   28 1
    27   17   18 2
    28   17   19 1
    29   19   21 1
    30   19   20 1
    31   19   29 1
    32   20   21 1
    33   20   30 1
    34   20   31 1
    35   21   32 1
    36   21   33 1
@<TRIPOS>MOLECULE
CHEMBL260929
   34    37     0     0     0
SMALL
USER_CHARGES

@<TRIPOS>ATOM
      1 C1         -0.0162    1.3465    0.0094 C.2       1 <0>        -0.2022
      2 C2          1.3156    1.7915   -0.0009 C.2       1 <0>        -0.1606
      3 C3          2.1129    0.6863   -0.0144 C.2       1 <0>         0.0368
      4 N1          1.3006   -0.4188   -0.0126 N.pl3     1 <0>        -0.5536
      5 H1          1.6001   -1.3414   -0.0201 H         1 <0>         0.4142
      6 C4          0.0021   -0.0041    0.0020 C.2       1 <0>         0.0048
      7 C5          3.5908    0.6798   -0.0293 C.ar      1 <0>         0.0502
      8 C6          4.2940    1.8934   -0.0245 C.ar      1 <0>        -0.1434
      9 C7          5.6553    1.9027   -0.0380 C.ar      1 <0>        -0.0292
     10 C8          6.3632    0.6951   -0.0565 C.ar      1 <0>        -0.1871
     11 C9          5.6671   -0.5296   -0.0611 C.ar      1 <0>         0.1550
     12 C10         4.2768   -0.5288   -0.0423 C.ar      1 <0>        -0.1564
     13 N2          6.6123   -1.5234   -0.0804 N.pl3     1 <0>        -0.5053
     14 H2          6.4269   -2.4755   -0.0879 H         1 <0>         0.4438
     15 N3          7.8858   -0.9456   -0.0880 N.2       1 <0>        -0.2345
     16 C11         7.7868    0.3573   -0.0744 C.2       1 <0>         0.3173
     17 N4          8.8510    1.2661   -0.0767 N.am      1 <0>        -0.6313
     18 C12        10.1214    0.8163   -0.0941 C.2       1 <0>         0.5365
     19 O1         10.3423   -0.3763   -0.1078 O.2       1 <0>        -0.4866
     20 C13        11.2673    1.7949   -0.0965 C.3       1 <0>        -0.1960
     21 C14        12.1127    1.8897   -1.3682 C.3       1 <0>        -0.1497
     22 C15        12.6858    1.2218   -0.1167 C.3       1 <0>        -0.1439
     23 H3         -0.8968    1.9716    0.0252 H         1 <0>         0.1404
     24 H4          1.6468    2.8194    0.0012 H         1 <0>         0.1414
     25 H5         -0.8657   -0.6470    0.0069 H         1 <0>         0.1683
     26 H6          3.7516    2.8272   -0.0102 H         1 <0>         0.1360
     27 H7          6.1891    2.8416   -0.0349 H         1 <0>         0.1316
     28 H8          3.7331   -1.4619   -0.0415 H         1 <0>         0.1219
     29 H9          8.6743    2.2198   -0.0657 H         1 <0>         0.4235
     30 H10        11.1032    2.7124    0.4686 H         1 <0>         0.1303
     31 H11        11.8400    1.2442   -2.2031 H         1 <0>         0.1011
     32 H12        12.5048    2.8697   -1.6401 H         1 <0>         0.1092
     33 H13        13.4549    1.7624    0.4349 H         1 <0>         0.1078
     34 H14        12.7901    0.1369   -0.1282 H         1 <0>         0.1097
@<TRIPOS>BOND
     1    1    6 2
     2    1    2 1
     3    1   23 1
     4    2    3 2
     5    2   24 1
     6    3    4 1
     7    3    7 1
     8    4    5 1
     9    4    6 1
    10    6   25 1
    11    7   12 ar
    12    7    8 ar
    13    8    9 ar
    14    8   26 1
    15    9   10 ar
    16    9   27 1
    17   10   16 1
    18   10   11 ar
    19   11   12 ar
    20   11   13 1
    21   12   28 1
    22   13   14 1
    23   13   15 1
    24   15   16 2
    25   16   17 1
    26   17   18 am
    27   17   29 1
    28   18   19 2
    29   18   20 1
    30   20   22 1
    31   20   21 1
    32   20   30 1
    33   21   22 1
    34   21   31 1
    35   21   32 1
    36   22   33 1
    37   22   34 1
@<TRIPOS>MOLECULE
CHEMBL455467
   62    65     0     0     0
SMALL
USER_CHARGES

@<TRIPOS>ATOM
      1 C1         -2.2553   -2.0030   -5.8546 C.3       1 <0>        -0.1438
      2 C2         -1.7715   -2.7080   -4.6136 C.cat     1 <0>         0.3351
      3 N1         -0.8908   -2.2392   -3.7696 N.pl3     1 <0>        -0.4782
      4 C3         -0.6979   -3.1234   -2.7863 C.2       1 <0>         0.0699
      5 C4         -1.4985   -4.1986   -3.0285 C.2       1 <0>         0.0739
      6 N2         -2.1820   -3.9215   -4.1925 N.pl3     1 <0>        -0.3921
      7 C5         -3.1666   -4.7841   -4.8502 C.3       1 <0>         0.1103
      8 C6         -4.4284   -4.8668   -3.9889 C.3       1 <0>        -0.1887
      9 C7         -3.5213   -4.2011   -6.2197 C.3       1 <0>        -0.1971
     10 C8         -1.6143   -5.4180   -2.2042 C.ar      1 <0>         0.2728
     11 C9         -2.3846   -6.5028   -2.6425 C.ar      1 <0>        -0.2793
     12 C10        -2.4624   -7.6225   -1.8367 C.ar      1 <0>         0.2128
     13 N3         -1.8119   -7.6377   -0.6829 N.ar      1 <0>        -0.5398
     14 C11        -1.0900   -6.5976   -0.2918 C.ar      1 <0>         0.5779
     15 N4         -0.9829   -5.5067   -1.0334 N.ar      1 <0>        -0.5433
     16 N5         -0.4254   -6.6558    0.9229 N.pl3     1 <0>        -0.6308
     17 C12        -0.4266   -7.8363    1.6613 C.ar      1 <0>         0.1938
     18 C13        -0.4563   -7.7856    3.0520 C.ar      1 <0>        -0.1438
     19 C14        -0.4571   -8.9506    3.7847 C.ar      1 <0>        -0.0316
     20 C15        -0.4286  -10.1857    3.1308 C.ar      1 <0>        -0.1602
     21 C16        -0.3993  -10.2333    1.7341 C.ar      1 <0>        -0.0764
     22 C17        -0.4040   -9.0647    1.0070 C.ar      1 <0>        -0.1193
     23 C18        -0.4289  -11.4367    3.9132 C.2       1 <0>         0.5741
     24 O1         -1.0662  -11.5074    4.9464 O.2       1 <0>        -0.5014
     25 N6          0.2771  -12.5009    3.4828 N.am      1 <0>        -0.6314
     26 C19         1.1625  -12.3981    2.3125 C.3       1 <0>         0.0734
     27 C20         2.5360  -12.9618    2.6915 C.3       1 <0>        -0.0228
     28 N7          2.3774  -14.3250    3.2135 N.4       1 <0>        -0.3859
     29 C21         1.6042  -14.2959    4.4615 C.3       1 <0>        -0.0205
     30 C22         0.1889  -13.7967    4.1736 C.3       1 <0>         0.0877
     31 C23         3.7017  -14.9051    3.4735 C.3       1 <0>        -0.0477
     32 H1         -3.2115   -1.5216   -5.6495 H         1 <0>         0.1272
     33 H2         -1.5259   -1.2498   -6.1523 H         1 <0>         0.1164
     34 H3         -2.3786   -2.7277   -6.6594 H         1 <0>         0.1426
     35 H4         -0.0263   -3.0064   -1.9486 H         1 <0>         0.2325
     36 H5         -2.7476   -5.7822   -4.9777 H         1 <0>         0.1315
     37 H6         -4.8001   -3.8614   -3.7914 H         1 <0>         0.0785
     38 H7         -5.1914   -5.4393   -4.5162 H         1 <0>         0.1075
     39 H8         -4.1925   -5.3588   -3.0452 H         1 <0>         0.0813
     40 H9         -2.6356   -4.2012   -6.8550 H         1 <0>         0.0871
     41 H10        -4.3001   -4.8076   -6.6820 H         1 <0>         0.1090
     42 H11        -3.8808   -3.1794   -6.0975 H         1 <0>         0.0935
     43 H12        -2.9056   -6.4647   -3.5878 H         1 <0>         0.1617
     44 H13        -3.0479   -8.4763   -2.1442 H         1 <0>         0.1871
     45 H14         0.0406   -5.8742    1.2588 H         1 <0>         0.4318
     46 H15        -0.4783   -6.8310    3.5566 H         1 <0>         0.1406
     47 H16        -0.4794   -8.9106    4.8637 H         1 <0>         0.1425
     48 H17        -0.3773  -11.1860    1.2259 H         1 <0>         0.1349
     49 H18        -0.3854   -9.1007   -0.0722 H         1 <0>         0.1414
     50 H19         0.7457  -12.9738    1.4861 H         1 <0>         0.0990
     51 H20         1.2635  -11.3528    2.0203 H         1 <0>         0.1391
     52 H21         3.1763  -12.9825    1.8096 H         1 <0>         0.1452
     53 H22         2.9897  -12.3306    3.4555 H         1 <0>         0.1345
     54 H23         1.5580  -15.2996    4.8839 H         1 <0>         0.1471
     55 H24         2.0862  -13.6242    5.1720 H         1 <0>         0.1344
     56 H25        -0.3534  -13.6757    5.1113 H         1 <0>         0.1386
     57 H26        -0.3279  -14.5160    3.5383 H         1 <0>         0.0975
     58 H27         4.2287  -14.2938    4.2061 H         1 <0>         0.1228
     59 H28         3.5854  -15.9172    3.8611 H         1 <0>         0.1276
     60 H29         4.2738  -14.9347    2.5461 H         1 <0>         0.1263
     61 H30        -0.4451   -1.3810   -3.8454 H         1 <0>         0.4674
     62 H31         1.8931  -14.8905    2.5324 H         1 <0>         0.4258
@<TRIPOS>BOND
     1    1    2 1
     2    1   32 1
     3    1   33 1
     4    1   34 1
     5    2    6 1
     6    2    3 2
     7    3    4 1
     8    3   61 1
     9    4    5 2
    10    4   35 1
    11    5    6 1
    12    5   10 1
    13    6    7 1
    14    7    8 1
    15    7    9 1
    16    7   36 1
    17    8   37 1
    18    8   38 1
    19    8   39 1
    20    9   40 1
    21    9   41 1
    22    9   42 1
    23   10   15 ar
    24   10   11 ar
    25   11   12 ar
    26   11   43 1
    27   12   13 ar
    28   12   44 1
    29   13   14 ar
    30   14   15 ar
    31   14   16 1
    32   16   17 1
    33   16   45 1
    34   17   22 ar
    35   17   18 ar
    36   18   19 ar
    37   18   46 1
    38   19   20 ar
    39   19   47 1
    40   20   21 ar
    41   20   23 1
    42   21   22 ar
    43   21   48 1
    44   22   49 1
    45   23   24 2
    46   23   25 am
    47   25   30 1
    48   25   26 1
    49   26   27 1
    50   26   50 1
    51   26   51 1
    52   27   28 1
    53   27   52 1
    54   27   53 1
    55   28   29 1
    56   28   31 1
    57   28   62 1
    58   29   30 1
    59   29   54 1
    60   29   55 1
    61   30   56 1
    62   30   57 1
    63   31   58 1
    64   31   59 1
    65   31   60 1
@<TRIPOS>MOLECULE
CHEMBL455467
   61    64     0     0     0
SMALL
USER_CHARGES

@<TRIPOS>ATOM
      1 C1         -2.2552   -2.0032   -5.8546 C.3       1 <0>        -0.1018
      2 C2         -1.7714   -2.7081   -4.6136 C.2       1 <0>         0.2474
      3 N1         -0.8907   -2.2393   -3.7696 N.2       1 <0>        -0.4947
      4 C3         -0.6978   -3.1235   -2.7863 C.2       1 <0>         0.0654
      5 C4         -1.4984   -4.1987   -3.0285 C.2       1 <0>        -0.0303
      6 N2         -2.1819   -3.9216   -4.1925 N.pl3     1 <0>        -0.4388
      7 C5         -3.1665   -4.7842   -4.8503 C.3       1 <0>         0.1191
      8 C6         -4.4282   -4.8670   -3.9889 C.3       1 <0>        -0.1799
      9 C7         -3.5211   -4.2013   -6.2197 C.3       1 <0>        -0.1830
     10 C8         -1.6142   -5.4181   -2.2042 C.ar      1 <0>         0.3139
     11 C9         -2.3845   -6.5029   -2.6425 C.ar      1 <0>        -0.2948
     12 C10        -2.4623   -7.6226   -1.8367 C.ar      1 <0>         0.1959
     13 N3         -1.8119   -7.6378   -0.6828 N.ar      1 <0>        -0.5635
     14 C11        -1.0899   -6.5977   -0.2918 C.ar      1 <0>         0.5655
     15 N4         -0.9829   -5.5067   -1.0333 N.ar      1 <0>        -0.5492
     16 N5         -0.4254   -6.6559    0.9230 N.pl3     1 <0>        -0.6379
     17 C12        -0.4266   -7.8364    1.6614 C.ar      1 <0>         0.2127
     18 C13        -0.4563   -7.7856    3.0520 C.ar      1 <0>        -0.1530
     19 C14        -0.4571   -8.9506    3.7847 C.ar      1 <0>        -0.0309
     20 C15        -0.4286  -10.1858    3.1309 C.ar      1 <0>        -0.1744
     21 C16        -0.3993  -10.2333    1.7342 C.ar      1 <0>        -0.0760
     22 C17        -0.4039   -9.0647    1.0071 C.ar      1 <0>        -0.1220
     23 C18        -0.4289  -11.4367    3.9133 C.2       1 <0>         0.5777
     24 O1         -1.0662  -11.5074    4.9465 O.2       1 <0>        -0.5069
     25 N6          0.2772  -12.5010    3.4829 N.am      1 <0>        -0.6323
     26 C19         1.1626  -12.3981    2.3126 C.3       1 <0>         0.0732
     27 C20         2.5360  -12.9618    2.6917 C.3       1 <0>        -0.0228
     28 N7          2.3774  -14.3251    3.2137 N.4       1 <0>        -0.3859
     29 C21         1.6043  -14.2959    4.4617 C.3       1 <0>        -0.0199
     30 C22         0.1890  -13.7967    4.1737 C.3       1 <0>         0.0879
     31 C23         3.7018  -14.9051    3.4737 C.3       1 <0>        -0.0470
     32 H1         -3.2114   -1.5218   -5.6496 H         1 <0>         0.0864
     33 H2         -1.5257   -1.2500   -6.1524 H         1 <0>         0.0923
     34 H3         -2.3784   -2.7278   -6.6595 H         1 <0>         0.1034
     35 H4         -0.0262   -3.0065   -1.9486 H         1 <0>         0.1812
     36 H5         -2.7475   -5.7824   -4.9777 H         1 <0>         0.1007
     37 H6         -5.1913   -5.4394   -4.5163 H         1 <0>         0.0848
     38 H7         -4.1924   -5.3589   -3.0453 H         1 <0>         0.0724
     39 H8         -4.8000   -3.8615   -3.7915 H         1 <0>         0.0695
     40 H9         -2.6354   -4.2013   -6.8550 H         1 <0>         0.0781
     41 H10        -4.2999   -4.8077   -6.6821 H         1 <0>         0.0845
     42 H11        -3.8807   -3.1796   -6.0976 H         1 <0>         0.0880
     43 H12        -2.9055   -6.4648   -3.5878 H         1 <0>         0.1577
     44 H13        -3.0478   -8.4765   -2.1442 H         1 <0>         0.1748
     45 H14         0.0406   -5.8743    1.2588 H         1 <0>         0.4297
     46 H15        -0.4783   -6.8310    3.5566 H         1 <0>         0.1389
     47 H16        -0.4794   -8.9106    4.8638 H         1 <0>         0.1384
     48 H17        -0.3772  -11.1860    1.2260 H         1 <0>         0.1312
     49 H18        -0.3854   -9.1008   -0.0721 H         1 <0>         0.1432
     50 H19         0.7457  -12.9738    1.4862 H         1 <0>         0.0983
     51 H20         1.2636  -11.3529    2.0205 H         1 <0>         0.1421
     52 H21         3.1764  -12.9826    1.8098 H         1 <0>         0.1451
     53 H22         2.9897  -12.3306    3.4557 H         1 <0>         0.1345
     54 H23         1.5580  -15.2996    4.8841 H         1 <0>         0.1450
     55 H24         2.0862  -13.6242    5.1721 H         1 <0>         0.1337
     56 H25        -0.3534  -13.6757    5.1114 H         1 <0>         0.1374
     57 H26        -0.3279  -14.5161    3.5385 H         1 <0>         0.0956
     58 H27         4.2287  -14.2938    4.2063 H         1 <0>         0.1222
     59 H28         3.5854  -15.9172    3.8613 H         1 <0>         0.1260
     60 H29         4.2739  -14.9347    2.5464 H         1 <0>         0.1258
     61 H30         1.8931  -14.8905    2.5326 H         1 <0>         0.4254
@<TRIPOS>BOND
     1    1    2 1
     2    1   32 1
     3    1   33 1
     4    1   34 1
     5    2    6 1
     6    2    3 2
     7    3    4 1
     8    4    5 2
     9    4   35 1
    10    5    6 1
    11    5   10 1
    12    6    7 1
    13    7    8 1
    14    7    9 1
    15    7   36 1
    16    8   37 1
    17    8   38 1
    18    8   39 1
    19    9   40 1
    20    9   41 1
    21    9   42 1
    22   10   15 ar
    23   10   11 ar
    24   11   12 ar
    25   11   43 1
    26   12   13 ar
    27   12   44 1
    28   13   14 ar
    29   14   15 ar
    30   14   16 1
    31   16   17 1
    32   16   45 1
    33   17   22 ar
    34   17   18 ar
    35   18   19 ar
    36   18   46 1
    37   19   20 ar
    38   19   47 1
    39   20   21 ar
    40   20   23 1
    41   21   22 ar
    42   21   48 1
    43   22   49 1
    44   23   24 2
    45   23   25 am
    46   25   30 1
    47   25   26 1
    48   26   27 1
    49   26   50 1
    50   26   51 1
    51   27   28 1
    52   27   52 1
    53   27   53 1
    54   28   29 1
    55   28   31 1
    56   28   61 1
    57   29   30 1
    58   29   54 1
    59   29   55 1
    60   30   56 1
    61   30   57 1
    62   31   58 1
    63   31   59 1
    64   31   60 1
@<TRIPOS>MOLECULE
CHEMBL455467
   61    64     0     0     0
SMALL
USER_CHARGES

@<TRIPOS>ATOM
      1 C1          0.4812    1.8383   -0.2099 C.3       1 <0>        -0.1416
      2 C2          0.4060    0.3343   -0.1500 C.cat     1 <0>         0.3290
      3 N1          0.1206   -0.4515   -1.1544 N.pl3     1 <0>        -0.4778
      4 C3          0.1425   -1.7242   -0.7477 C.2       1 <0>         0.0655
      5 C4          0.4574   -1.7338    0.5776 C.2       1 <0>         0.0817
      6 N2          0.6282   -0.4173    0.9473 N.pl3     1 <0>        -0.3913
      7 C5          0.9814    0.0734    2.2817 C.3       1 <0>         0.1100
      8 C6          2.4207   -0.3295    2.6089 C.3       1 <0>        -0.1886
      9 C7          0.8588    1.5982    2.3134 C.3       1 <0>        -0.1958
     10 C8          0.5934   -2.9204    1.4454 C.ar      1 <0>         0.2671
     11 C9          0.7964   -2.7746    2.8237 C.ar      1 <0>        -0.2854
     12 C10         0.9173   -3.9147    3.5950 C.ar      1 <0>         0.2140
     13 N3          0.8383   -5.1024    3.0137 N.ar      1 <0>        -0.5348
     14 C11         0.6457   -5.2122    1.7073 C.ar      1 <0>         0.5810
     15 N4          0.5193   -4.1480    0.9307 N.ar      1 <0>        -0.5468
     16 N5          0.5692   -6.4744    1.1402 N.pl3     1 <0>        -0.6267
     17 C12         0.5793   -7.6047    1.9532 C.ar      1 <0>         0.1745
     18 C13         1.2082   -8.7677    1.5180 C.ar      1 <0>        -0.1453
     19 C14         1.2194   -9.8868    2.3190 C.ar      1 <0>        -0.0394
     20 C15         0.5988   -9.8545    3.5711 C.ar      1 <0>        -0.1398
     21 C16        -0.0315   -8.6849    4.0055 C.ar      1 <0>        -0.0700
     22 C17        -0.0347   -7.5675    3.2018 C.ar      1 <0>        -0.1187
     23 C18         0.6086  -11.0525    4.4322 C.2       1 <0>         0.5609
     24 O1          1.5831  -11.7795    4.4515 O.2       1 <0>        -0.5307
     25 N6         -0.4626  -11.3411    5.1975 N.am      1 <0>        -0.6092
     26 C19        -1.7016  -10.5560    5.0888 C.3       1 <0>         0.1016
     27 C20        -2.8752  -11.5227    4.8981 C.3       1 <0>         0.0377
     28 N7         -2.8644  -12.5199    5.9767 N.3       1 <0>        -0.5432
     29 C21        -1.6476  -13.3416    5.9305 C.3       1 <0>         0.0390
     30 C22        -0.4257  -12.4533    6.1592 C.3       1 <0>         0.1155
     31 C23        -4.0688  -13.3596    5.9294 C.3       1 <0>         0.0237
     32 H1          1.5223    2.1465   -0.3052 H         1 <0>         0.1253
     33 H2         -0.0840    2.1963   -1.0705 H         1 <0>         0.1146
     34 H3          0.0595    2.2598    0.7026 H         1 <0>         0.1415
     35 H4         -0.0549   -2.5912   -1.3607 H         1 <0>         0.2327
     36 H5          0.3060   -0.3608    3.0190 H         1 <0>         0.1326
     37 H6          3.0865    0.0338    1.8261 H         1 <0>         0.0769
     38 H7          2.7117    0.1064    3.5646 H         1 <0>         0.1065
     39 H8          2.4892   -1.4157    2.6690 H         1 <0>         0.0837
     40 H9         -0.1795    1.8828    2.1430 H         1 <0>         0.0864
     41 H10         1.1822    1.9685    3.2862 H         1 <0>         0.1079
     42 H11         1.4864    2.0294    1.5335 H         1 <0>         0.0922
     43 H12         0.8574   -1.7944    3.2729 H         1 <0>         0.1589
     44 H13         1.0749   -3.8383    4.6607 H         1 <0>         0.1860
     45 H14         0.5088   -6.5705    0.1768 H         1 <0>         0.4291
     46 H15         1.6875   -8.7920    0.5505 H         1 <0>         0.1352
     47 H16         1.7070  -10.7890    1.9805 H         1 <0>         0.1400
     48 H17        -0.5119   -8.6567    4.9723 H         1 <0>         0.1388
     49 H18        -0.5180   -6.6623    3.5385 H         1 <0>         0.1376
     50 H19        -1.8490   -9.9764    6.0001 H         1 <0>         0.0812
     51 H20        -1.6363   -9.8857    4.2317 H         1 <0>         0.0980
     52 H21        -3.8125  -10.9668    4.9260 H         1 <0>         0.0897
     53 H22        -2.7791  -12.0263    3.9362 H         1 <0>         0.0400
     54 H23        -1.6945  -14.1049    6.7072 H         1 <0>         0.0922
     55 H24        -1.5685  -13.8198    4.9542 H         1 <0>         0.0402
     56 H25         0.4827  -13.0369    6.0095 H         1 <0>         0.0995
     57 H26        -0.4481  -12.0597    7.1754 H         1 <0>         0.0794
     58 H27        -4.1116  -13.8800    4.9727 H         1 <0>         0.0274
     59 H28        -4.0352  -14.0890    6.7387 H         1 <0>         0.0729
     60 H29        -4.9534  -12.7327    6.0419 H         1 <0>         0.0717
     61 H30        -0.0771   -0.1561   -2.0569 H         1 <0>         0.4661
@<TRIPOS>BOND
     1    1    2 1
     2    1   32 1
     3    1   33 1
     4    1   34 1
     5    2    6 1
     6    2    3 2
     7    3    4 1
     8    3   61 1
     9    4    5 2
    10    4   35 1
    11    5    6 1
    12    5   10 1
    13    6    7 1
    14    7    8 1
    15    7    9 1
    16    7   36 1
    17    8   37 1
    18    8   38 1
    19    8   39 1
    20    9   40 1
    21    9   41 1
    22    9   42 1
    23   10   15 ar
    24   10   11 ar
    25   11   12 ar
    26   11   43 1
    27   12   13 ar
    28   12   44 1
    29   13   14 ar
    30   14   15 ar
    31   14   16 1
    32   16   17 1
    33   16   45 1
    34   17   22 ar
    35   17   18 ar
    36   18   19 ar
    37   18   46 1
    38   19   20 ar
    39   19   47 1
    40   20   21 ar
    41   20   23 1
    42   21   22 ar
    43   21   48 1
    44   22   49 1
    45   23   24 2
    46   23   25 am
    47   25   30 1
    48   25   26 1
    49   26   27 1
    50   26   50 1
    51   26   51 1
    52   27   28 1
    53   27   52 1
    54   27   53 1
    55   28   29 1
    56   28   31 1
    57   29   30 1
    58   29   54 1
    59   29   55 1
    60   30   56 1
    61   30   57 1
    62   31   58 1
    63   31   59 1
    64   31   60 1
@<TRIPOS>MOLECULE
CHEMBL323821
   53    56     0     0     0
SMALL
USER_CHARGES

@<TRIPOS>ATOM
      1 C1         -0.0167    1.3784    0.0096 C.ar      1 <0>        -0.0608
      2 C2          1.1695    2.0865    0.0021 C.ar      1 <0>        -0.1396
      3 C3          2.3802    1.4093   -0.0131 C.ar      1 <0>         0.1127
      4 C4          2.3963    0.0221   -0.0206 C.ar      1 <0>        -0.1996
      5 C5          1.2074   -0.6814   -0.0130 C.ar      1 <0>        -0.0610
      6 C6          0.0021   -0.0041    0.0020 C.ar      1 <0>        -0.0886
      7 C7         -1.2934   -0.7740    0.0107 C.3       1 <0>        -0.0986
      8 C8         -1.7392   -1.0230   -1.4071 C.2       1 <0>         0.5230
      9 O1         -1.0708   -0.6154   -2.3335 O.2       1 <0>        -0.5041
     10 N1         -2.8807   -1.6987   -1.6458 N.am      1 <0>        -0.6359
     11 C9         -3.2954   -1.9303   -2.9644 C.2       1 <0>         0.2989
     12 C10        -2.6194   -1.5220   -4.1253 C.2       1 <0>        -0.2613
     13 C11        -3.3400   -1.9358   -5.1923 C.2       1 <0>         0.1335
     14 N2         -4.4311   -2.5816   -4.7296 N.pl3     1 <0>        -0.4643
     15 H1         -5.1267   -2.9856   -5.2717 H         1 <0>         0.4410
     16 N3         -4.3804   -2.5714   -3.3299 N.2       1 <0>        -0.3148
     17 C12        -2.9875   -1.7146   -6.6407 C.3       1 <0>        -0.1012
     18 C13        -4.1409   -1.5119   -7.6254 C.3       1 <0>        -0.1692
     19 C14        -3.3498   -2.8215   -7.6329 C.3       1 <0>        -0.1692
     20 O2          3.5484    2.1036   -0.0209 O.3       1 <0>        -0.3256
     21 C15         4.7565    1.3405   -0.0365 C.3       1 <0>         0.0280
     22 C16         5.9580    2.2878   -0.0434 C.3       1 <0>         0.0012
     23 N4          5.9923    3.0443    1.2153 N.4       1 <0>        -0.3911
     24 C17         4.8165    3.9374    1.2913 C.3       1 <0>        -0.0013
     25 C18         5.3362    5.2166    1.9935 C.3       1 <0>        -0.1458
     26 C19         6.7651    5.3403    1.4022 C.3       1 <0>        -0.1421
     27 C20         7.2129    3.8699    1.2649 C.3       1 <0>        -0.0135
     28 H2         -0.9594    1.9052    0.0259 H         1 <0>         0.1345
     29 H3          1.1543    3.1664    0.0076 H         1 <0>         0.1329
     30 H4          3.3375   -0.5074   -0.0328 H         1 <0>         0.1274
     31 H5          1.2194   -1.7613   -0.0189 H         1 <0>         0.1295
     32 H6         -1.1460   -1.7274    0.5180 H         1 <0>         0.1124
     33 H7         -2.0553   -0.1973    0.5352 H         1 <0>         0.1134
     34 H8         -3.4153   -2.0247   -0.9049 H         1 <0>         0.4178
     35 H9         -1.6890   -0.9747   -4.1601 H         1 <0>         0.1714
     36 H10        -2.0677   -1.1584   -6.8211 H         1 <0>         0.1335
     37 H11        -5.1545   -1.5385   -7.2256 H         1 <0>         0.0956
     38 H12        -3.9799   -0.8220   -8.4538 H         1 <0>         0.1090
     39 H13        -2.6685   -2.9932   -8.4663 H         1 <0>         0.1088
     40 H14        -3.8431   -3.7097   -7.2381 H         1 <0>         0.0956
     41 H15         4.7979    0.7076    0.8500 H         1 <0>         0.0855
     42 H16         4.7806    0.7165   -0.9299 H         1 <0>         0.1090
     43 H17         6.8762    1.7093   -0.1448 H         1 <0>         0.1487
     44 H18         5.8702    2.9798   -0.8810 H         1 <0>         0.1403
     45 H19         4.4545    4.1741    0.2908 H         1 <0>         0.1377
     46 H20         4.0261    3.4746    1.8822 H         1 <0>         0.1343
     47 H21         4.7279    6.0816    1.7291 H         1 <0>         0.1161
     48 H22         5.3713    5.0818    3.0746 H         1 <0>         0.0967
     49 H23         6.7380    5.8275    0.4275 H         1 <0>         0.0985
     50 H24         7.4198    5.8803    2.0861 H         1 <0>         0.1122
     51 H25         7.8187    3.5849    2.1251 H         1 <0>         0.1323
     52 H26         7.7854    3.7409    0.3463 H         1 <0>         0.1316
     53 H27         5.9824    2.4058    1.9965 H         1 <0>         0.4243
@<TRIPOS>BOND
     1    1    6 ar
     2    1    2 ar
     3    1   28 1
     4    2    3 ar
     5    2   29 1
     6    3    4 ar
     7    3   20 1
     8    4    5 ar
     9    4   30 1
    10    5    6 ar
    11    5   31 1
    12    6    7 1
    13    7    8 1
    14    7   32 1
    15    7   33 1
    16    8    9 2
    17    8   10 am
    18   10   11 1
    19   10   34 1
    20   11   16 2
    21   11   12 1
    22   12   13 2
    23   12   35 1
    24   13   14 1
    25   13   17 1
    26   14   15 1
    27   14   16 1
    28   17   19 1
    29   17   18 1
    30   17   36 1
    31   18   19 1
    32   18   37 1
    33   18   38 1
    34   19   39 1
    35   19   40 1
    36   20   21 1
    37   21   22 1
    38   21   41 1
    39   21   42 1
    40   22   23 1
    41   22   43 1
    42   22   44 1
    43   23   27 1
    44   23   24 1
    45   23   53 1
    46   24   25 1
    47   24   45 1
    48   24   46 1
    49   25   26 1
    50   25   47 1
    51   25   48 1
    52   26   27 1
    53   26   49 1
    54   26   50 1
    55   27   51 1
    56   27   52 1
@<TRIPOS>MOLECULE
CHEMBL323821
   53    56     0     0     0
SMALL
USER_CHARGES

@<TRIPOS>ATOM
      1 C1         -0.0167    1.3784    0.0096 C.ar      1 <0>        -0.0604
      2 C2          1.1695    2.0865    0.0021 C.ar      1 <0>        -0.1394
      3 C3          2.3802    1.4093   -0.0131 C.ar      1 <0>         0.1147
      4 C4          2.3963    0.0221   -0.0206 C.ar      1 <0>        -0.1994
      5 C5          1.2074   -0.6814   -0.0130 C.ar      1 <0>        -0.0604
      6 C6          0.0021   -0.0041    0.0020 C.ar      1 <0>        -0.0917
      7 C7         -1.2934   -0.7740    0.0107 C.3       1 <0>        -0.0964
      8 C8         -1.7392   -1.0230   -1.4071 C.2       1 <0>         0.5205
      9 O1         -1.0708   -0.6154   -2.3335 O.2       1 <0>        -0.4937
     10 N1         -2.8807   -1.6987   -1.6458 N.am      1 <0>        -0.6514
     11 C9         -3.2934   -1.9291   -2.9580 C.2       1 <0>         0.3023
     12 C10        -2.6450   -1.5311   -4.0865 C.2       1 <0>        -0.2679
     13 C11        -3.3928   -1.9641   -5.1849 C.2       1 <0>         0.1216
     14 N2         -4.4482   -2.5969   -4.7403 N.2       1 <0>        -0.2739
     15 H1         -5.0636   -2.9956   -2.7493 H         1 <0>         0.4378
     16 N3         -4.4076   -2.5939   -3.3402 N.pl3     1 <0>        -0.4892
     17 C12        -3.0435   -1.7401   -6.6337 C.3       1 <0>        -0.0861
     18 C13        -1.9982   -0.6689   -6.9509 C.3       1 <0>        -0.1635
     19 C14        -3.4735   -0.4156   -7.2674 C.3       1 <0>        -0.1622
     20 O2          3.5484    2.1036   -0.0209 O.3       1 <0>        -0.3252
     21 C15         4.7565    1.3405   -0.0365 C.3       1 <0>         0.0279
     22 C16         5.9580    2.2878   -0.0434 C.3       1 <0>         0.0010
     23 N4          5.9923    3.0443    1.2153 N.4       1 <0>        -0.3911
     24 C17         4.8165    3.9374    1.2913 C.3       1 <0>        -0.0014
     25 C18         5.3362    5.2166    1.9935 C.3       1 <0>        -0.1458
     26 C19         6.7651    5.3403    1.4022 C.3       1 <0>        -0.1421
     27 C20         7.2129    3.8699    1.2649 C.3       1 <0>        -0.0135
     28 H2         -0.9594    1.9052    0.0259 H         1 <0>         0.1343
     29 H3          1.1543    3.1664    0.0076 H         1 <0>         0.1335
     30 H4          3.3375   -0.5074   -0.0328 H         1 <0>         0.1281
     31 H5          1.2194   -1.7613   -0.0189 H         1 <0>         0.1294
     32 H6         -1.1460   -1.7274    0.5180 H         1 <0>         0.1124
     33 H7         -2.0553   -0.1973    0.5352 H         1 <0>         0.1133
     34 H8         -3.4153   -2.0247   -0.9049 H         1 <0>         0.4141
     35 H9         -1.7178   -0.9787   -4.1262 H         1 <0>         0.1727
     36 H10        -3.0611   -2.6289   -7.2644 H         1 <0>         0.1228
     37 H11        -1.5631   -0.1261   -6.1117 H         1 <0>         0.0994
     38 H12        -1.3277   -0.8529   -7.7904 H         1 <0>         0.1023
     39 H13        -3.7737   -0.4329   -8.3151 H         1 <0>         0.1029
     40 H14        -4.0090    0.2938   -6.6364 H         1 <0>         0.0952
     41 H15         4.7979    0.7076    0.8500 H         1 <0>         0.0856
     42 H16         4.7806    0.7165   -0.9299 H         1 <0>         0.1094
     43 H17         6.8762    1.7093   -0.1448 H         1 <0>         0.1490
     44 H18         5.8702    2.9798   -0.8810 H         1 <0>         0.1407
     45 H19         4.4545    4.1741    0.2908 H         1 <0>         0.1378
     46 H20         4.0261    3.4746    1.8822 H         1 <0>         0.1340
     47 H21         4.7279    6.0816    1.7291 H         1 <0>         0.1161
     48 H22         5.3713    5.0818    3.0746 H         1 <0>         0.0967
     49 H23         6.7380    5.8275    0.4275 H         1 <0>         0.0986
     50 H24         7.4198    5.8803    2.0861 H         1 <0>         0.1123
     51 H25         7.8187    3.5849    2.1251 H         1 <0>         0.1324
     52 H26         7.7854    3.7409    0.3463 H         1 <0>         0.1318
     53 H27         5.9824    2.4058    1.9965 H         1 <0>         0.4243
@<TRIPOS>BOND
     1    1    6 ar
     2    1    2 ar
     3    1   28 1
     4    2    3 ar
     5    2   29 1
     6    3    4 ar
     7    3   20 1
     8    4    5 ar
     9    4   30 1
    10    5    6 ar
    11    5   31 1
    12    6    7 1
    13    7    8 1
    14    7   32 1
    15    7   33 1
    16    8    9 2
    17    8   10 am
    18   10   34 1
    19   10   11 1
    20   11   12 2
    21   11   16 1
    22   12   13 1
    23   12   35 1
    24   13   14 2
    25   13   17 1
    26   14   16 1
    27   15   16 1
    28   17   19 1
    29   17   18 1
    30   17   36 1
    31   18   19 1
    32   18   37 1
    33   18   38 1
    34   19   39 1
    35   19   40 1
    36   20   21 1
    37   21   22 1
    38   21   41 1
    39   21   42 1
    40   22   23 1
    41   22   43 1
    42   22   44 1
    43   23   27 1
    44   23   24 1
    45   23   53 1
    46   24   25 1
    47   24   45 1
    48   24   46 1
    49   25   26 1
    50   25   47 1
    51   25   48 1
    52   26   27 1
    53   26   49 1
    54   26   50 1
    55   27   51 1
    56   27   52 1
@<TRIPOS>MOLECULE
CHEMBL114917
   37    39     0     0     0
SMALL
USER_CHARGES

@<TRIPOS>ATOM
      1 C1         -0.0173    1.4248    0.0099 C.3       1 <0>         0.0271
      2 O1          0.0021   -0.0041    0.0020 O.3       1 <0>        -0.3180
      3 C2          0.6058   -0.6071   -1.0557 C.ar      1 <0>         0.1281
      4 C3          1.1731    0.1608   -2.0626 C.ar      1 <0>        -0.2047
      5 C4          1.7865   -0.4545   -3.1363 C.ar      1 <0>        -0.0781
      6 C5          1.8356   -1.8347   -3.2084 C.ar      1 <0>        -0.1399
      7 C6          1.2707   -2.6020   -2.2067 C.ar      1 <0>        -0.0340
      8 C7          0.6609   -1.9913   -1.1277 C.ar      1 <0>        -0.1351
      9 C8          1.3255   -4.1057   -2.2887 C.3       1 <0>        -0.0961
     10 C9          2.5791   -4.6002   -1.6141 C.2       1 <0>         0.5234
     11 O2          3.3520   -3.8093   -1.1158 O.2       1 <0>        -0.4980
     12 N1          2.8414   -5.9213   -1.5645 N.am      1 <0>        -0.6382
     13 C10         4.0073   -6.3812   -0.9372 C.2       1 <0>         0.3035
     14 C11         4.9810   -5.5813   -0.3178 C.2       1 <0>        -0.2589
     15 C12         5.9439   -6.3990    0.1650 C.2       1 <0>         0.1304
     16 N2          5.5976   -7.6686   -0.1348 N.pl3     1 <0>        -0.4676
     17 H1          6.1035   -8.4653    0.0893 H         1 <0>         0.4390
     18 N3          4.3769   -7.6349   -0.8211 N.2       1 <0>        -0.3188
     19 C13         7.1838   -5.9690    0.9058 C.3       1 <0>        -0.0985
     20 C14         8.4543   -6.7953    0.6962 C.3       1 <0>        -0.1703
     21 C15         7.6938   -6.8842    2.0208 C.3       1 <0>        -0.1700
     22 H2          1.0053    1.8021    0.0021 H         1 <0>         0.0560
     23 H3         -0.5445    1.7859   -0.8732 H         1 <0>         0.0558
     24 H4         -0.5275    1.7763    0.9067 H         1 <0>         0.1008
     25 H5          1.1347    1.2387   -2.0069 H         1 <0>         0.1280
     26 H6          2.2279    0.1427   -3.9204 H         1 <0>         0.1263
     27 H7          2.3157   -2.3139   -4.0487 H         1 <0>         0.1232
     28 H8          0.2237   -2.5911   -0.3432 H         1 <0>         0.1293
     29 H9          0.4535   -4.5288   -1.7900 H         1 <0>         0.1124
     30 H10         1.3304   -4.4127   -3.3346 H         1 <0>         0.1133
     31 H11         2.2233   -6.5538   -1.9630 H         1 <0>         0.4169
     32 H12         4.9640   -4.5042   -0.2406 H         1 <0>         0.1729
     33 H13         7.2994   -4.8940    1.0447 H         1 <0>         0.1342
     34 H14         8.3933   -7.6500    0.0225 H         1 <0>         0.0947
     35 H15         9.4061   -6.2640    0.6970 H         1 <0>         0.1080
     36 H16         8.1452   -6.4115    2.8930 H         1 <0>         0.1080
     37 H17         7.1324   -7.7974    2.2185 H         1 <0>         0.0949
@<TRIPOS>BOND
     1    1    2 1
     2    1   22 1
     3    1   23 1
     4    1   24 1
     5    2    3 1
     6    3    8 ar
     7    3    4 ar
     8    4    5 ar
     9    4   25 1
    10    5    6 ar
    11    5   26 1
    12    6    7 ar
    13    6   27 1
    14    7    8 ar
    15    7    9 1
    16    8   28 1
    17    9   10 1
    18    9   29 1
    19    9   30 1
    20   10   11 2
    21   10   12 am
    22   12   13 1
    23   12   31 1
    24   13   18 2
    25   13   14 1
    26   14   15 2
    27   14   32 1
    28   15   16 1
    29   15   19 1
    30   16   17 1
    31   16   18 1
    32   19   21 1
    33   19   20 1
    34   19   33 1
    35   20   21 1
    36   20   34 1
    37   20   35 1
    38   21   36 1
    39   21   37 1
@<TRIPOS>MOLECULE
CHEMBL114917
   37    39     0     0     0
SMALL
USER_CHARGES

@<TRIPOS>ATOM
      1 C1         -0.0173    1.4248    0.0099 C.3       1 <0>         0.0268
      2 O1          0.0021   -0.0041    0.0020 O.3       1 <0>        -0.3177
      3 C2          0.6258   -0.6184    1.0415 C.ar      1 <0>         0.1289
      4 C3          1.2023    0.1385    2.0514 C.ar      1 <0>        -0.2034
      5 C4          1.8353   -0.4882    3.1070 C.ar      1 <0>        -0.0776
      6 C5          1.8947   -1.8689    3.1579 C.ar      1 <0>        -0.1398
      7 C6          1.3214   -2.6252    2.1527 C.ar      1 <0>        -0.0367
      8 C7          0.6822   -2.0032    1.0975 C.ar      1 <0>        -0.1350
      9 C8          1.3885   -4.1296    2.2111 C.3       1 <0>        -0.0940
     10 C9          0.1855   -4.6578    2.9494 C.2       1 <0>         0.5209
     11 O2         -0.6446   -3.8883    3.3853 O.2       1 <0>        -0.4875
     12 N1          0.0321   -5.9852    3.1253 N.am      1 <0>        -0.6536
     13 C10        -1.0813   -6.4740    3.8086 C.2       1 <0>         0.3066
     14 C11        -2.0849   -5.7292    4.3476 C.2       1 <0>        -0.2697
     15 C12        -2.9987   -6.6062    4.9383 C.2       1 <0>         0.1218
     16 N2         -2.5668   -7.8290    4.7643 N.2       1 <0>        -0.2795
     17 H1         -0.8248   -8.5350    3.7800 H         1 <0>         0.4366
     18 N3         -1.3627   -7.7746    4.0508 N.pl3     1 <0>        -0.4911
     19 C13        -4.2648   -6.2110    5.6538 C.3       1 <0>        -0.0851
     20 C14        -4.4052   -4.7503    6.0867 C.3       1 <0>        -0.1633
     21 C15        -4.1530   -5.8374    7.1333 C.3       1 <0>        -0.1633
     22 H2          1.0053    1.8021    0.0021 H         1 <0>         0.0560
     23 H3         -0.5445    1.7859   -0.8732 H         1 <0>         0.1013
     24 H4         -0.5275    1.7763    0.9067 H         1 <0>         0.0565
     25 H5          1.1565    1.2168    2.0119 H         1 <0>         0.1287
     26 H6          2.2845    0.1005    3.8932 H         1 <0>         0.1270
     27 H7          2.3900   -2.3570    3.9842 H         1 <0>         0.1230
     28 H8          0.2306   -2.5946    0.3148 H         1 <0>         0.1292
     29 H9          1.3989   -4.5324    1.1983 H         1 <0>         0.1124
     30 H10         2.2966   -4.4329    2.7321 H         1 <0>         0.1132
     31 H11         0.6959   -6.6006    2.7767 H         1 <0>         0.4130
     32 H12        -2.1613   -4.6521    4.3235 H         1 <0>         0.1739
     33 H13        -5.1679   -6.7302    5.3327 H         1 <0>         0.1216
     34 H14        -3.5818   -4.0750    5.8539 H         1 <0>         0.1015
     35 H15        -5.4008   -4.3080    6.0502 H         1 <0>         0.1021
     36 H16        -4.9826   -6.1103    7.7854 H         1 <0>         0.1012
     37 H17        -3.1637   -5.8774    7.5891 H         1 <0>         0.0949
@<TRIPOS>BOND
     1    1    2 1
     2    1   22 1
     3    1   23 1
     4    1   24 1
     5    2    3 1
     6    3    8 ar
     7    3    4 ar
     8    4    5 ar
     9    4   25 1
    10    5    6 ar
    11    5   26 1
    12    6    7 ar
    13    6   27 1
    14    7    8 ar
    15    7    9 1
    16    8   28 1
    17    9   10 1
    18    9   29 1
    19    9   30 1
    20   10   11 2
    21   10   12 am
    22   12   31 1
    23   12   13 1
    24   13   14 2
    25   13   18 1
    26   14   15 1
    27   14   32 1
    28   15   16 2
    29   15   19 1
    30   16   18 1
    31   17   18 1
    32   19   21 1
    33   19   20 1
    34   19   33 1
    35   20   21 1
    36   20   34 1
    37   20   35 1
    38   21   36 1
    39   21   37 1
@<TRIPOS>MOLECULE
CHEMBL180341
   55    59     0     0     0
SMALL
USER_CHARGES

@<TRIPOS>ATOM
      1 C1          1.0757   -0.2956   -0.6759 C.ar      1 <0>        -0.0588
      2 C2          2.1777    0.5351   -0.7201 C.ar      1 <0>        -0.1784
      3 C3          2.1270    1.7883   -0.1237 C.ar      1 <0>         0.2067
      4 C4          0.9678    2.2058    0.5171 C.ar      1 <0>        -0.1787
      5 C5         -0.1341    1.3750    0.5612 C.ar      1 <0>        -0.0937
      6 C6         -0.0833    0.1220   -0.0351 C.ar      1 <0>         0.1036
      7 N1         -1.2013   -0.7209    0.0097 N.pl3     1 <0>        -0.6324
      8 C7         -1.0317   -2.0907    0.1097 C.ar      1 <0>         0.5673
      9 N2          0.1982   -2.5719    0.2822 N.ar      1 <0>        -0.5499
     10 C8          0.4247   -3.8650    0.3848 C.ar      1 <0>         0.2398
     11 C9         -0.6685   -4.7465    0.3085 C.ar      1 <0>        -0.2185
     12 C10        -0.5083   -6.1369    0.4097 C.ar      1 <0>        -0.0452
     13 C11        -1.5971   -6.9489    0.3302 C.ar      1 <0>        -0.1627
     14 C12        -2.8782   -6.4169    0.1485 C.ar      1 <0>         0.1602
     15 C13        -3.0687   -5.0562    0.0452 C.ar      1 <0>        -0.1057
     16 C14        -1.9647   -4.1980    0.1242 C.ar      1 <0>         0.2258
     17 N3         -2.0949   -2.8677    0.0357 N.ar      1 <0>        -0.5624
     18 C15        -4.4539   -4.4958   -0.1504 C.3       1 <0>        -0.0403
     19 C16        -5.3768   -4.9554    0.9972 C.3       1 <0>        -0.1122
     20 C17        -6.7439   -5.1987    0.3111 C.3       1 <0>        -0.1240
     21 C18        -6.3381   -5.8166   -1.0500 C.3       1 <0>        -0.1204
     22 C19        -5.0652   -5.0434   -1.4520 C.3       1 <0>        -0.1080
     23 O1         -3.9465   -7.2515    0.0727 O.3       1 <0>        -0.4853
     24 N4          3.2440    2.6301   -0.1681 N.pl3     1 <0>        -0.6344
     25 C20         3.1788    4.0035    0.3562 C.3       1 <0>         0.0867
     26 C21         4.3621    4.2145    1.3077 C.3       1 <0>         0.0452
     27 O2          5.5726    3.8457    0.6425 O.3       1 <0>        -0.3795
     28 C22         5.6366    2.4683    0.2649 C.3       1 <0>         0.0455
     29 C23         4.5202    2.1660   -0.7349 C.3       1 <0>         0.0874
     30 H1          1.1137   -1.2684   -1.1435 H         1 <0>         0.1305
     31 H2          3.0793    0.2102   -1.2182 H         1 <0>         0.1245
     32 H3          0.9284    3.1802    0.9812 H         1 <0>         0.1258
     33 H4         -1.0356    1.6997    1.0596 H         1 <0>         0.1243
     34 H5         -2.0944   -0.3443   -0.0294 H         1 <0>         0.4219
     35 H6          1.4278   -4.2403    0.5242 H         1 <0>         0.1788
     36 H7          0.4751   -6.5607    0.5497 H         1 <0>         0.1385
     37 H8         -1.4707   -8.0186    0.4080 H         1 <0>         0.1360
     38 H9         -4.4145   -3.4071   -0.1855 H         1 <0>         0.0938
     39 H10        -5.0031   -5.8782    1.4410 H         1 <0>         0.0583
     40 H11        -5.4629   -4.1750    1.7533 H         1 <0>         0.0640
     41 H12        -7.3469   -5.8991    0.8889 H         1 <0>         0.0655
     42 H13        -7.2756   -4.2584    0.1652 H         1 <0>         0.0658
     43 H14        -6.1196   -6.8785   -0.9369 H         1 <0>         0.0732
     44 H15        -7.1258   -5.6647   -1.7879 H         1 <0>         0.0599
     45 H16        -5.3231   -4.2204   -2.1185 H         1 <0>         0.0589
     46 H17        -4.3599   -5.7145   -1.9423 H         1 <0>         0.0645
     47 H18        -4.3586   -7.4414    0.9267 H         1 <0>         0.3915
     48 H19         3.2392    4.7144   -0.4679 H         1 <0>         0.0705
     49 H20         2.2431    4.1461    0.8968 H         1 <0>         0.0925
     50 H21         4.4121    5.2635    1.5995 H         1 <0>         0.1047
     51 H22         4.2309    3.5949    2.1948 H         1 <0>         0.0557
     52 H23         6.6036    2.2611   -0.1936 H         1 <0>         0.1052
     53 H24         5.5100    1.8424    1.1482 H         1 <0>         0.0555
     54 H25         4.4724    1.0923   -0.9165 H         1 <0>         0.0925
     55 H26         4.7180    2.6887   -1.6708 H         1 <0>         0.0698
@<TRIPOS>BOND
     1    1    6 ar
     2    1    2 ar
     3    1   30 1
     4    2    3 ar
     5    2   31 1
     6    3    4 ar
     7    3   24 1
     8    4    5 ar
     9    4   32 1
    10    5    6 ar
    11    5   33 1
    12    6    7 1
    13    7    8 1
    14    7   34 1
    15    8   17 ar
    16    8    9 ar
    17    9   10 ar
    18   10   11 ar
    19   10   35 1
    20   11   16 ar
    21   11   12 ar
    22   12   13 ar
    23   12   36 1
    24   13   14 ar
    25   13   37 1
    26   14   15 ar
    27   14   23 1
    28   15   16 ar
    29   15   18 1
    30   16   17 ar
    31   18   22 1
    32   18   19 1
    33   18   38 1
    34   19   20 1
    35   19   39 1
    36   19   40 1
    37   20   21 1
    38   20   41 1
    39   20   42 1
    40   21   22 1
    41   21   43 1
    42   21   44 1
    43   22   45 1
    44   22   46 1
    45   23   47 1
    46   24   29 1
    47   24   25 1
    48   25   26 1
    49   25   48 1
    50   25   49 1
    51   26   27 1
    52   26   50 1
    53   26   51 1
    54   27   28 1
    55   28   29 1
    56   28   52 1
    57   28   53 1
    58   29   54 1
    59   29   55 1
@<TRIPOS>MOLECULE
CHEMBL82243
   36    38     0     0     0
SMALL
USER_CHARGES

@<TRIPOS>ATOM
      1 C1         -0.2231    0.6743   -1.0063 C.3       1 <0>        -0.1521
      2 C2         -0.0502   -0.8127   -0.6899 C.3       1 <0>        -0.1212
      3 C3          0.6221   -0.9687    0.6756 C.3       1 <0>        -0.1179
      4 C4          0.7951   -2.4557    0.9919 C.3       1 <0>         0.0787
      5 O1          1.4230   -2.6014    2.2673 O.3       1 <0>        -0.3159
      6 C5          1.6502   -3.8638    2.6996 C.ar      1 <0>         0.2983
      7 C6          0.6904   -4.5551    3.4562 C.ar      1 <0>        -0.2862
      8 C7          0.9706   -5.8601    3.8816 C.ar      1 <0>         0.2290
      9 N1          2.1071   -6.4463    3.5880 N.ar      1 <0>        -0.5039
     10 C8          3.0519   -5.8381    2.8742 C.ar      1 <0>         0.3523
     11 N2          4.2907   -6.2212    2.4446 N.pl3     1 <0>        -0.4831
     12 N3          4.8713   -5.1770    1.7186 N.2       1 <0>        -0.2301
     13 C9          4.0588   -4.1599    1.6719 C.2       1 <0>         0.1115
     14 C10         2.8509   -4.5273    2.4015 C.ar      1 <0>        -0.2627
     15 C11        -0.5936   -3.9165    3.7985 C.2       1 <0>         0.4891
     16 O2         -0.7650   -2.7327    3.5697 O.2       1 <0>        -0.4237
     17 C12        -1.6634   -4.7061    4.4141 C.2       1 <0>        -0.2821
     18 C13        -2.8844   -4.2814    4.9198 C.2       1 <0>        -0.0588
     19 C14        -3.6888   -5.2655    5.4407 C.2       1 <0>        -0.1871
     20 C15        -3.2520   -6.5499    5.4280 C.2       1 <0>        -0.2222
     21 S1         -1.7395   -6.4638    4.7019 S.3       1 <0>         0.2103
     22 H1          0.7536    1.1578   -1.0248 H         1 <0>         0.0562
     23 H2         -0.7020    0.7855   -1.9791 H         1 <0>         0.0570
     24 H3         -0.8440    1.1389   -0.2403 H         1 <0>         0.0568
     25 H4         -1.0269   -1.2962   -0.6714 H         1 <0>         0.0644
     26 H5          0.5708   -1.2772   -1.4559 H         1 <0>         0.0640
     27 H6          1.5988   -0.4852    0.6571 H         1 <0>         0.0747
     28 H7          0.0012   -0.5041    1.4415 H         1 <0>         0.0801
     29 H8         -0.1816   -2.9392    1.0104 H         1 <0>         0.0587
     30 H9          1.4160   -2.9202    0.2260 H         1 <0>         0.0582
     31 H10         0.2352   -6.3952    4.4640 H         1 <0>         0.1689
     32 H11         4.2446   -3.2171    1.1789 H         1 <0>         0.2079
     33 H12        -3.1827   -3.2435    4.9049 H         1 <0>         0.1510
     34 H13        -4.6555   -5.0201    5.8549 H         1 <0>         0.1396
     35 H14        -3.7622   -7.4277    5.7961 H         1 <0>         0.1901
     36 H15         4.7029   -7.0823    2.6166 H         1 <0>         0.4502
@<TRIPOS>BOND
     1    1    2 1
     2    1   22 1
     3    1   23 1
     4    1   24 1
     5    2    3 1
     6    2   25 1
     7    2   26 1
     8    3    4 1
     9    3   27 1
    10    3   28 1
    11    4    5 1
    12    4   29 1
    13    4   30 1
    14    5    6 1
    15    6   14 ar
    16    6    7 ar
    17    7    8 ar
    18    7   15 1
    19    8    9 ar
    20    8   31 1
    21    9   10 ar
    22   10   14 ar
    23   10   11 1
    24   11   36 1
    25   11   12 1
    26   12   13 2
    27   13   32 1
    28   13   14 1
    29   15   16 2
    30   15   17 1
    31   17   21 1
    32   17   18 2
    33   18   19 1
    34   18   33 1
    35   19   20 2
    36   19   34 1
    37   20   21 1
    38   20   35 1
@<TRIPOS>MOLECULE
CHEMBL82243
   36    38     0     0     0
SMALL
USER_CHARGES

@<TRIPOS>ATOM
      1 C1         -0.2525    0.6279   -1.0513 C.3       1 <0>        -0.1521
      2 C2         -0.0739   -0.8553   -0.7207 C.3       1 <0>        -0.1212
      3 C3          0.6034   -0.9956    0.6441 C.3       1 <0>        -0.1179
      4 C4          0.7819   -2.4787    0.9747 C.3       1 <0>         0.0796
      5 O1          1.4145   -2.6098    2.2494 O.3       1 <0>        -0.3193
      6 C5          1.6468   -3.8654    2.6931 C.ar      1 <0>         0.3154
      7 C6          0.6952   -4.5505    3.4574 C.ar      1 <0>        -0.2976
      8 C7          0.9614   -5.8561    3.9073 C.ar      1 <0>         0.2399
      9 N1          2.0793   -6.4749    3.6401 N.ar      1 <0>        -0.4702
     10 C8          3.0529   -5.8971    2.9122 C.ar      1 <0>         0.2979
     11 N2          4.2464   -6.2842    2.5061 N.2       1 <0>        -0.2797
     12 N3          4.8348   -5.2543    1.7646 N.pl3     1 <0>        -0.4058
     13 C9          4.0058   -4.2056    1.7009 C.2       1 <0>         0.1452
     14 C10         2.8568   -4.5335    2.3959 C.ar      1 <0>        -0.2992
     15 C11        -0.5844   -3.9041    3.7907 C.2       1 <0>         0.4882
     16 O2         -0.7491   -2.7206    3.5532 O.2       1 <0>        -0.4300
     17 C12        -1.6606   -4.6844    4.4085 C.2       1 <0>        -0.2807
     18 C13        -2.8791   -4.2496    4.9106 C.2       1 <0>        -0.0617
     19 C14        -3.6911   -5.2263    5.4343 C.2       1 <0>        -0.1876
     20 C15        -3.2631   -6.5134    5.4273 C.2       1 <0>        -0.2259
     21 S1         -1.7488   -6.4403    4.7036 S.3       1 <0>         0.2158
     22 H1          0.7227    1.1141   -1.0779 H         1 <0>         0.0556
     23 H2         -0.7350    0.7278   -2.0236 H         1 <0>         0.0572
     24 H3         -0.8723    1.0982   -0.2880 H         1 <0>         0.0572
     25 H4         -1.0490   -1.3416   -0.6941 H         1 <0>         0.0652
     26 H5          0.5460   -1.3256   -1.4840 H         1 <0>         0.0631
     27 H6          1.5785   -0.5093    0.6175 H         1 <0>         0.0731
     28 H7         -0.0165   -0.5252    1.4074 H         1 <0>         0.0810
     29 H8         -0.1932   -2.9650    1.0013 H         1 <0>         0.0603
     30 H9          1.4018   -2.9491    0.2114 H         1 <0>         0.0558
     31 H10         0.2132   -6.3657    4.4963 H         1 <0>         0.1648
     32 H11         4.1986   -3.2716    1.1941 H         1 <0>         0.2014
     33 H12        -3.1703   -3.2097    4.8913 H         1 <0>         0.1498
     34 H13        -4.6567   -4.9728    5.8462 H         1 <0>         0.1383
     35 H14        -3.7796   -7.3863    5.7984 H         1 <0>         0.1893
     36 H15         5.7141   -5.2942    1.3570 H         1 <0>         0.4546
@<TRIPOS>BOND
     1    1    2 1
     2    1   22 1
     3    1   23 1
     4    1   24 1
     5    2    3 1
     6    2   25 1
     7    2   26 1
     8    3    4 1
     9    3   27 1
    10    3   28 1
    11    4    5 1
    12    4   29 1
    13    4   30 1
    14    5    6 1
    15    6   14 ar
    16    6    7 ar
    17    7    8 ar
    18    7   15 1
    19    8    9 ar
    20    8   31 1
    21    9   10 ar
    22   10   14 ar
    23   10   11 2
    24   11   12 1
    25   12   13 1
    26   12   36 1
    27   13   14 2
    28   13   32 1
    29   15   16 2
    30   15   17 1
    31   17   21 1
    32   17   18 2
    33   18   19 1
    34   18   33 1
    35   19   20 2
    36   19   34 1
    37   20   21 1
    38   20   35 1
@<TRIPOS>MOLECULE
CHEMBL186342
   39    42     0     0     0
SMALL
USER_CHARGES

@<TRIPOS>ATOM
      1 C1          0.1544    1.3794    0.6424 C.ar      1 <0>        -0.0685
      2 C2          1.1506    2.1067    0.0617 C.ar      1 <0>        -0.1332
      3 C3          2.2122    1.4495   -0.5745 C.ar      1 <0>        -0.0049
      4 C4          3.2665    2.1509   -1.1893 C.ar      1 <0>        -0.1507
      5 C5          4.2625    1.4406   -1.7869 C.ar      1 <0>         0.0770
      6 N1          4.2637    0.1145   -1.8039 N.ar      1 <0>        -0.4852
      7 C6          3.3136   -0.6038   -1.2509 C.ar      1 <0>         0.1424
      8 C7          2.2412    0.0310   -0.6090 C.ar      1 <0>        -0.1273
      9 C8          1.1972   -0.6953   -0.0011 C.ar      1 <0>         0.1910
     10 C9          0.1703   -0.0113    0.6161 C.ar      1 <0>        -0.1345
     11 N2          1.2034   -2.0900   -0.0216 N.am      1 <0>        -0.6720
     12 C10         0.0452   -2.7706    0.0867 C.2       1 <0>         0.7006
     13 O1         -1.0129   -2.1719    0.0994 O.2       1 <0>        -0.5006
     14 N3          0.0598   -4.1150    0.1809 N.am      1 <0>        -0.6258
     15 C11        -1.1346   -4.8169    0.2926 C.2       1 <0>         0.2758
     16 N4         -2.3617   -4.3436    0.3171 N.2       1 <0>        -0.5132
     17 C12        -3.4018   -5.1495    0.4283 C.2       1 <0>         0.0608
     18 C13        -3.1455   -6.4776    0.5153 C.2       1 <0>        -0.1933
     19 S1         -1.3625   -6.4794    0.4218 S.3       1 <0>         0.1226
     20 C14        -4.1021   -7.6344    0.6488 C.3       1 <0>        -0.0212
     21 C15        -3.5894   -8.7548    1.5688 C.3       1 <0>        -0.1349
     22 C16        -4.1764   -9.7496    0.5536 C.3       1 <0>        -0.1425
     23 C17        -4.0094   -8.6468   -0.5050 C.3       1 <0>        -0.1335
     24 H1         -0.6588    1.8916    1.1352 H         1 <0>         0.1332
     25 H2          1.1215    3.1859    0.0917 H         1 <0>         0.1342
     26 H3          3.2848    3.2307   -1.1872 H         1 <0>         0.1422
     27 H4          5.0744    1.9722   -2.2609 H         1 <0>         0.1558
     28 H5          3.3582   -1.6821   -1.2910 H         1 <0>         0.1541
     29 H6         -0.6316   -0.5626    1.0844 H         1 <0>         0.1534
     30 H7          2.0412   -2.5700   -0.1139 H         1 <0>         0.4101
     31 H8          0.9040   -4.5927    0.1707 H         1 <0>         0.4242
     32 H9         -4.4117   -4.7674    0.4494 H         1 <0>         0.1751
     33 H10        -5.1212   -7.3175    0.8707 H         1 <0>         0.1168
     34 H11        -2.5026   -8.7963    1.6425 H         1 <0>         0.0816
     35 H12        -4.0818   -8.7813    2.5409 H         1 <0>         0.0755
     36 H13        -3.5444  -10.6206    0.3803 H         1 <0>         0.0722
     37 H14        -5.2158  -10.0121    0.7505 H         1 <0>         0.0853
     38 H15        -4.8409   -8.5860   -1.2072 H         1 <0>         0.0749
     39 H16        -3.0375   -8.6587   -0.9983 H         1 <0>         0.0825
@<TRIPOS>BOND
     1    1   10 ar
     2    1    2 ar
     3    1   24 1
     4    2    3 ar
     5    2   25 1
     6    3    8 ar
     7    3    4 ar
     8    4    5 ar
     9    4   26 1
    10    5    6 ar
    11    5   27 1
    12    6    7 ar
    13    7    8 ar
    14    7   28 1
    15    8    9 ar
    16    9   10 ar
    17    9   11 1
    18   10   29 1
    19   11   12 am
    20   11   30 1
    21   12   13 2
    22   12   14 am
    23   14   15 1
    24   14   31 1
    25   15   19 1
    26   15   16 2
    27   16   17 1
    28   17   18 2
    29   17   32 1
    30   18   19 1
    31   18   20 1
    32   20   23 1
    33   20   21 1
    34   20   33 1
    35   21   22 1
    36   21   34 1
    37   21   35 1
    38   22   23 1
    39   22   36 1
    40   22   37 1
    41   23   38 1
    42   23   39 1
@<TRIPOS>MOLECULE
CHEMBL186342
   40    43     0     0     0
SMALL
USER_CHARGES

@<TRIPOS>ATOM
      1 C1          0.1544    1.3794    0.6424 C.ar      1 <0>        -0.0127
      2 C2          1.1506    2.1067    0.0617 C.ar      1 <0>        -0.1323
      3 C3          2.2122    1.4495   -0.5745 C.ar      1 <0>         0.0238
      4 C4          3.2665    2.1509   -1.1893 C.ar      1 <0>        -0.0711
      5 C5          4.2625    1.4406   -1.7869 C.ar      1 <0>         0.0524
      6 N1          4.2637    0.1145   -1.8039 N.ar      1 <0>        -0.4461
      7 C6          3.3134   -0.6038   -1.2513 C.ar      1 <0>         0.2050
      8 C7          2.2412    0.0310   -0.6090 C.ar      1 <0>        -0.1202
      9 C8          1.1972   -0.6953   -0.0011 C.ar      1 <0>         0.2235
     10 C9          0.1703   -0.0113    0.6161 C.ar      1 <0>        -0.1141
     11 N2          1.2034   -2.0900   -0.0216 N.am      1 <0>        -0.6778
     12 C10         0.0452   -2.7706    0.0867 C.2       1 <0>         0.7014
     13 O1         -1.0129   -2.1719    0.0994 O.2       1 <0>        -0.4903
     14 N3          0.0598   -4.1150    0.1809 N.am      1 <0>        -0.6191
     15 C11        -1.1346   -4.8169    0.2926 C.2       1 <0>         0.2512
     16 N4         -2.3617   -4.3436    0.3171 N.2       1 <0>        -0.5065
     17 C12        -3.4018   -5.1495    0.4283 C.2       1 <0>         0.0534
     18 C13        -3.1455   -6.4776    0.5153 C.2       1 <0>        -0.1749
     19 S1         -1.3625   -6.4794    0.4218 S.3       1 <0>         0.1399
     20 C14        -4.1021   -7.6344    0.6488 C.3       1 <0>        -0.0267
     21 C15        -3.5894   -8.7548    1.5688 C.3       1 <0>        -0.1347
     22 C16        -4.1764   -9.7496    0.5536 C.3       1 <0>        -0.1424
     23 C17        -4.0094   -8.6468   -0.5050 C.3       1 <0>        -0.1329
     24 H1         -0.6588    1.8916    1.1352 H         1 <0>         0.1574
     25 H2          1.1215    3.1859    0.0917 H         1 <0>         0.1587
     26 H3          3.2848    3.2307   -1.1872 H         1 <0>         0.1864
     27 H4          5.0744    1.9722   -2.2609 H         1 <0>         0.2043
     28 H5          3.3578   -1.6821   -1.2916 H         1 <0>         0.2023
     29 H6         -0.6316   -0.5626    1.0844 H         1 <0>         0.1743
     30 H7          2.0412   -2.5700   -0.1139 H         1 <0>         0.4116
     31 H8          0.9040   -4.5927    0.1707 H         1 <0>         0.4258
     32 H9         -4.4117   -4.7674    0.4494 H         1 <0>         0.1792
     33 H10        -5.1212   -7.3175    0.8707 H         1 <0>         0.1204
     34 H11        -2.5026   -8.7963    1.6425 H         1 <0>         0.0810
     35 H12        -4.0818   -8.7813    2.5409 H         1 <0>         0.0780
     36 H13        -3.5444  -10.6206    0.3803 H         1 <0>         0.0742
     37 H14        -5.2158  -10.0121    0.7505 H         1 <0>         0.0878
     38 H15        -4.8409   -8.5860   -1.2072 H         1 <0>         0.0772
     39 H16        -3.0375   -8.6587   -0.9983 H         1 <0>         0.0818
     40 H17         4.9970   -0.3440   -2.2432 H         1 <0>         0.4507
@<TRIPOS>BOND
     1    1   10 ar
     2    1    2 ar
     3    1   24 1
     4    2    3 ar
     5    2   25 1
     6    3    8 ar
     7    3    4 ar
     8    4    5 ar
     9    4   26 1
    10    5    6 ar
    11    5   27 1
    12    6    7 ar
    13    6   40 1
    14    7    8 ar
    15    7   28 1
    16    8    9 ar
    17    9   10 ar
    18    9   11 1
    19   10   29 1
    20   11   12 am
    21   11   30 1
    22   12   13 2
    23   12   14 am
    24   14   15 1
    25   14   31 1
    26   15   19 1
    27   15   16 2
    28   16   17 1
    29   17   18 2
    30   17   32 1
    31   18   19 1
    32   18   20 1
    33   20   23 1
    34   20   21 1
    35   20   33 1
    36   21   22 1
    37   21   34 1
    38   21   35 1
    39   22   23 1
    40   22   36 1
    41   22   37 1
    42   23   38 1
    43   23   39 1
@<TRIPOS>MOLECULE
CHEMBL402910
   46    48     0     0     0
SMALL
USER_CHARGES

@<TRIPOS>ATOM
      1 C1         -0.0187    1.5258    0.0104 C.3       1 <0>        -0.1741
      2 C2          0.0021   -0.0041    0.0020 C.3       1 <0>         0.1203
      3 N1         -1.3723   -0.5112    0.0124 N.pl3     1 <0>        -0.6302
      4 C3         -2.0716   -0.7579   -1.2510 C.3       1 <0>         0.1206
      5 C4         -1.8159   -2.1971   -1.7029 C.3       1 <0>        -0.1739
      6 C5         -2.0173   -0.7599    1.2295 C.ar      1 <0>         0.1840
      7 C6         -1.3502   -0.5184    2.4310 C.ar      1 <0>        -0.1261
      8 C7         -1.9617   -0.7549    3.6282 C.ar      1 <0>        -0.0974
      9 C8         -3.2659   -1.2429    3.6620 C.ar      1 <0>         0.0963
     10 C9         -3.9478   -1.4894    2.4561 C.ar      1 <0>        -0.1314
     11 C10        -3.3128   -1.2378    1.2356 C.ar      1 <0>        -0.1357
     12 C11        -5.2728   -1.9883    2.8270 C.2       1 <0>         0.3016
     13 N2         -5.3338   -2.0208    4.1316 N.2       1 <0>        -0.2283
     14 N3         -4.1273   -1.5729    4.6790 N.pl3     1 <0>        -0.5070
     15 H1         -3.9304   -1.5061    5.6264 H         1 <0>         0.4418
     16 N4         -6.2912   -2.3633    1.9430 N.am      1 <0>        -0.6366
     17 C12        -7.4697   -2.8081    2.4224 C.2       1 <0>         0.5048
     18 O1         -7.6477   -2.8836    3.6199 O.2       1 <0>        -0.4762
     19 C13        -8.5662   -3.2118    1.4707 C.3       1 <0>        -0.0960
     20 C14        -9.7693   -3.6681    2.2551 C.ar      1 <0>        -0.0734
     21 C15        -9.8985   -4.9975    2.6114 C.ar      1 <0>        -0.1033
     22 C16       -11.0022   -5.4161    3.3309 C.ar      1 <0>        -0.1191
     23 C17       -11.9764   -4.5052    3.6944 C.ar      1 <0>        -0.1169
     24 C18       -11.8468   -3.1757    3.3388 C.ar      1 <0>        -0.1192
     25 C19       -10.7410   -2.7563    2.6230 C.ar      1 <0>        -0.1034
     26 H2          1.0039    1.9031    0.0027 H         1 <0>         0.0635
     27 H3         -0.5459    1.8868   -0.8726 H         1 <0>         0.0559
     28 H4         -0.5289    1.8773    0.9072 H         1 <0>         0.0582
     29 H5          0.5123   -0.3556   -0.8948 H         1 <0>         0.0730
     30 H6          0.5293   -0.3651    0.8851 H         1 <0>         0.0740
     31 H7         -3.1417   -0.6062   -1.1097 H         1 <0>         0.0734
     32 H8         -1.7041   -0.0678   -2.0105 H         1 <0>         0.0726
     33 H9         -0.7458   -2.3488   -1.8443 H         1 <0>         0.0559
     34 H10        -2.1835   -2.8871   -0.9434 H         1 <0>         0.0583
     35 H11        -2.3362   -2.3807   -2.6429 H         1 <0>         0.0634
     36 H12        -0.3387   -0.1404    2.4135 H         1 <0>         0.1320
     37 H13        -1.4334   -0.5639    4.5506 H         1 <0>         0.1293
     38 H14        -3.8301   -1.4200    0.3052 H         1 <0>         0.1252
     39 H15        -6.1488   -2.3029    0.9854 H         1 <0>         0.4204
     40 H16        -8.8397   -2.3593    0.8490 H         1 <0>         0.1084
     41 H17        -8.2155   -4.0262    0.8368 H         1 <0>         0.1084
     42 H18        -9.1374   -5.7091    2.3275 H         1 <0>         0.1199
     43 H19       -11.1034   -6.4548    3.6087 H         1 <0>         0.1226
     44 H20       -12.8390   -4.8324    4.2559 H         1 <0>         0.1219
     45 H21       -12.6081   -2.4641    3.6225 H         1 <0>         0.1226
     46 H22       -10.6379   -1.7169    2.3484 H         1 <0>         0.1200
@<TRIPOS>BOND
     1    1    2 1
     2    1   26 1
     3    1   27 1
     4    1   28 1
     5    2    3 1
     6    2   29 1
     7    2   30 1
     8    3    4 1
     9    3    6 1
    10    4    5 1
    11    4   31 1
    12    4   32 1
    13    5   33 1
    14    5   34 1
    15    5   35 1
    16    6   11 ar
    17    6    7 ar
    18    7    8 ar
    19    7   36 1
    20    8    9 ar
    21    8   37 1
    22    9   14 1
    23    9   10 ar
    24   10   11 ar
    25   10   12 1
    26   11   38 1
    27   12   13 2
    28   12   16 1
    29   13   14 1
    30   14   15 1
    31   16   17 am
    32   16   39 1
    33   17   18 2
    34   17   19 1
    35   19   20 1
    36   19   40 1
    37   19   41 1
    38   20   25 ar
    39   20   21 ar
    40   21   22 ar
    41   21   42 1
    42   22   23 ar
    43   22   43 1
    44   23   24 ar
    45   23   44 1
    46   24   25 ar
    47   24   45 1
    48   25   46 1
@<TRIPOS>MOLECULE
CHEMBL295136
   37    38     0     0     0
SMALL
USER_CHARGES

@<TRIPOS>ATOM
      1 C1         -0.0184    1.5028    0.0103 C.3       1 <0>        -0.1677
      2 C2          0.0021   -0.0041    0.0020 C.2       1 <0>         0.5054
      3 O1          1.0606   -0.5962   -0.0113 O.2       1 <0>        -0.4720
      4 N1         -1.1558   -0.6938    0.0094 N.am      1 <0>        -0.6205
      5 C3         -1.1369   -2.0857    0.0017 C.2       1 <0>         0.3386
      6 N2         -0.1045   -2.9082   -0.0067 N.2       1 <0>        -0.4904
      7 C4         -0.2703   -4.2178   -0.0132 C.2       1 <0>         0.0866
      8 C5         -1.5301   -4.7366   -0.0112 C.2       1 <0>        -0.2263
      9 S1         -2.5044   -3.2372    0.0086 S.3       1 <0>         0.0216
     10 S2         -2.0541   -6.4189   -0.0190 S.3       1 <0>         0.0402
     11 C6         -3.8650   -6.3145   -0.0111 C.3       1 <0>        -0.0276
     12 C7         -4.4483   -7.7041   -0.0169 C.2       1 <0>         0.1839
     13 N3         -4.7430   -8.4075    1.0390 N.2       1 <0>        -0.4498
     14 C8         -5.2413   -9.5920    0.6428 C.2       1 <0>        -0.0384
     15 C9         -5.2473   -9.6030   -0.7005 C.2       1 <0>        -0.0122
     16 O2         -4.7546   -8.4171   -1.1089 O.3       1 <0>        -0.1869
     17 C10        -5.7206  -10.7280   -1.5844 C.3       1 <0>         0.0162
     18 C11        -7.1959  -11.0153   -1.2982 C.3       1 <0>        -0.1419
     19 C12        -5.5542  -10.3283   -3.0518 C.3       1 <0>        -0.1470
     20 C13        -4.8923  -11.9827   -1.3005 C.3       1 <0>        -0.1421
     21 H1          1.0042    1.8801    0.0026 H         1 <0>         0.1034
     22 H2         -0.5455    1.8639   -0.8728 H         1 <0>         0.0964
     23 H3         -0.5286    1.8543    0.9071 H         1 <0>         0.0965
     24 H4         -2.0023   -0.2203    0.0200 H         1 <0>         0.4287
     25 H5          0.5875   -4.8739   -0.0205 H         1 <0>         0.1760
     26 H6         -4.1946   -5.7858    0.8833 H         1 <0>         0.1321
     27 H7         -4.2017   -5.7755   -0.8967 H         1 <0>         0.1198
     28 H8         -5.5760  -10.3906    1.2882 H         1 <0>         0.1873
     29 H9         -7.7860  -10.1215   -1.5004 H         1 <0>         0.0608
     30 H10        -7.5383  -11.8290   -1.9375 H         1 <0>         0.0734
     31 H11        -7.3145  -11.3001   -0.2528 H         1 <0>         0.0641
     32 H12        -4.5032  -10.1236   -3.2557 H         1 <0>         0.0622
     33 H13        -5.8966  -11.1420   -3.6911 H         1 <0>         0.0691
     34 H14        -6.1443   -9.4344   -3.2540 H         1 <0>         0.0609
     35 H15        -5.0109  -12.2675   -0.2551 H         1 <0>         0.0642
     36 H16        -5.2347  -12.7964   -1.9398 H         1 <0>         0.0735
     37 H17        -3.8413  -11.7781   -1.5044 H         1 <0>         0.0619
@<TRIPOS>BOND
     1    1    2 1
     2    1   21 1
     3    1   22 1
     4    1   23 1
     5    2    3 2
     6    2    4 am
     7    4    5 1
     8    4   24 1
     9    5    9 1
    10    5    6 2
    11    6    7 1
    12    7    8 2
    13    7   25 1
    14    8    9 1
    15    8   10 1
    16   10   11 1
    17   11   12 1
    18   11   26 1
    19   11   27 1
    20   12   16 1
    21   12   13 2
    22   13   14 1
    23   14   15 2
    24   14   28 1
    25   15   16 1
    26   15   17 1
    27   17   18 1
    28   17   19 1
    29   17   20 1
    30   18   29 1
    31   18   30 1
    32   18   31 1
    33   19   32 1
    34   19   33 1
    35   19   34 1
    36   20   35 1
    37   20   36 1
    38   20   37 1
@<TRIPOS>MOLECULE
CHEMBL340904
   47    49     0     0     0
SMALL
USER_CHARGES

@<TRIPOS>ATOM
      1 C1         -0.0187    1.5258    0.0104 C.3       1 <0>        -0.1404
      2 C2          0.0021   -0.0041    0.0020 C.3       1 <0>         0.0297
      3 C3          0.7421   -0.5109    1.2415 C.3       1 <0>        -0.1408
      4 C4         -1.4333   -0.5336    0.0129 C.3       1 <0>        -0.1496
      5 C5          0.7074   -0.4901   -1.2379 C.2       1 <0>         0.2220
      6 N1          1.9426   -0.2299   -1.5592 N.2       1 <0>        -0.4787
      7 C6          2.2198   -0.8320   -2.7292 C.2       1 <0>         0.0020
      8 C7          1.1117   -1.4785   -3.1276 C.2       1 <0>        -0.0551
      9 O1          0.1692   -1.2657   -2.1884 O.3       1 <0>        -0.1894
     10 C8          0.9539   -2.2928   -4.3858 C.3       1 <0>        -0.0336
     11 S1          1.4035   -4.0179   -4.0499 S.3       1 <0>         0.0215
     12 C9          1.1694   -4.8283   -5.5969 C.2       1 <0>        -0.2249
     13 C10         1.3510   -6.1369   -5.9298 C.2       1 <0>         0.0851
     14 N2          1.1122   -6.5346   -7.1656 N.2       1 <0>        -0.4893
     15 C11         0.6993   -5.6887   -8.0910 C.2       1 <0>         0.3400
     16 S2          0.6202   -4.1627   -7.1631 S.3       1 <0>         0.0191
     17 N3          0.4010   -5.9231   -9.4304 N.am      1 <0>        -0.6208
     18 C12         0.5231   -7.1645   -9.9408 C.2       1 <0>         0.5069
     19 O2          0.8930   -8.0775   -9.2330 O.2       1 <0>        -0.4534
     20 C13         0.2002   -7.4183  -11.3907 C.3       1 <0>        -0.0924
     21 C14         0.4171   -8.8759  -11.7060 C.ar      1 <0>        -0.0781
     22 C15         1.6550   -9.3126  -12.1391 C.ar      1 <0>        -0.1022
     23 C16         1.8539  -10.6497  -12.4283 C.ar      1 <0>        -0.1187
     24 C17         0.8150  -11.5501  -12.2839 C.ar      1 <0>        -0.1145
     25 C18        -0.4227  -11.1135  -11.8499 C.ar      1 <0>        -0.1188
     26 C19        -0.6204   -9.7772  -11.5566 C.ar      1 <0>        -0.1024
     27 H1          1.0039    1.9031    0.0027 H         1 <0>         0.0711
     28 H2         -0.5459    1.8868   -0.8726 H         1 <0>         0.0594
     29 H3         -0.5289    1.8773    0.9072 H         1 <0>         0.0753
     30 H4          0.2319   -0.1594    2.1383 H         1 <0>         0.0754
     31 H5          0.7568   -1.6008    1.2356 H         1 <0>         0.0603
     32 H6          1.7647   -0.1336    1.2338 H         1 <0>         0.0712
     33 H7         -1.9605   -0.1726   -0.8702 H         1 <0>         0.0633
     34 H8         -1.4185   -1.6235    0.0069 H         1 <0>         0.0644
     35 H9         -1.9435   -0.1821    0.9097 H         1 <0>         0.0751
     36 H10         3.1631   -0.8011   -3.2542 H         1 <0>         0.1894
     37 H11        -0.0821   -2.2461   -4.7213 H         1 <0>         0.1106
     38 H12         1.6057   -1.8921   -5.1621 H         1 <0>         0.1235
     39 H13         1.6887   -6.8446   -5.1870 H         1 <0>         0.1750
     40 H14         0.1052   -5.1930   -9.9964 H         1 <0>         0.4280
     41 H15        -0.8402   -7.1560  -11.5825 H         1 <0>         0.1116
     42 H16         0.8502   -6.8099  -12.0196 H         1 <0>         0.1118
     43 H17         2.4667   -8.6092  -12.2520 H         1 <0>         0.1205
     44 H18         2.8209  -10.9908  -12.7674 H         1 <0>         0.1236
     45 H19         0.9703  -12.5946  -12.5106 H         1 <0>         0.1229
     46 H20        -1.2344  -11.8169  -11.7374 H         1 <0>         0.1236
     47 H21        -1.5864   -9.4367  -11.2139 H         1 <0>         0.1205
@<TRIPOS>BOND
     1    1    2 1
     2    1   27 1
     3    1   28 1
     4    1   29 1
     5    2    3 1
     6    2    4 1
     7    2    5 1
     8    3   30 1
     9    3   31 1
    10    3   32 1
    11    4   33 1
    12    4   34 1
    13    4   35 1
    14    5    9 1
    15    5    6 2
    16    6    7 1
    17    7    8 2
    18    7   36 1
    19    8    9 1
    20    8   10 1
    21   10   11 1
    22   10   37 1
    23   10   38 1
    24   11   12 1
    25   12   16 1
    26   12   13 2
    27   13   14 1
    28   13   39 1
    29   14   15 2
    30   15   16 1
    31   15   17 1
    32   17   18 am
    33   17   40 1
    34   18   19 2
    35   18   20 1
    36   20   21 1
    37   20   41 1
    38   20   42 1
    39   21   26 ar
    40   21   22 ar
    41   22   23 ar
    42   22   43 1
    43   23   24 ar
    44   23   44 1
    45   24   25 ar
    46   24   45 1
    47   25   26 ar
    48   25   46 1
    49   26   47 1
@<TRIPOS>MOLECULE
CHEMBL1082152
   50    53     0     0     0
SMALL
USER_CHARGES

@<TRIPOS>ATOM
      1 C1         -0.0178    1.4608    0.0101 C.3       1 <0>         0.0725
      2 N1          0.0021   -0.0041    0.0020 N.pl3     1 <0>        -0.4693
      3 C2          0.0078   -0.7714   -1.1169 C.2       1 <0>         0.1107
      4 C3          0.0279   -2.1024   -0.7613 C.2       1 <0>        -0.1478
      5 C4          0.0349   -2.1375    0.7127 C.ar      1 <0>        -0.0457
      6 C5          0.0236   -0.7975    1.1323 C.ar      1 <0>         0.0816
      7 C6          0.0322   -0.5086    2.4928 C.ar      1 <0>        -0.0897
      8 C7          0.0550   -1.5331    3.4146 C.ar      1 <0>        -0.1331
      9 C8          0.0696   -2.8581    2.9990 C.ar      1 <0>         0.0830
     10 C9          0.0533   -3.1645    1.6532 C.ar      1 <0>        -0.1097
     11 F1          0.0924   -3.8507    3.9152 F         1 <0>        -0.1389
     12 C10         0.0395   -3.2561   -1.6695 C.2       1 <0>        -0.0177
     13 C11         1.1154   -3.7242   -2.4124 C.2       1 <0>        -0.0747
     14 C12         0.6219   -4.8960   -3.1575 C.2       1 <0>         0.5602
     15 O1          1.2785   -5.5770   -3.9205 O.2       1 <0>        -0.4463
     16 N2         -0.6729   -5.0881   -2.8549 N.am      1 <0>        -0.6894
     17 C13        -1.0941   -4.1632   -1.9753 C.2       1 <0>         0.5551
     18 O2         -2.2133   -4.0819   -1.5119 O.2       1 <0>        -0.4425
     19 C14         2.4804   -3.1603   -2.4490 C.ar      1 <0>         0.0136
     20 C15         2.6959   -1.8776   -2.9606 C.ar      1 <0>        -0.1475
     21 C16         3.9715   -1.3537   -2.9935 C.ar      1 <0>        -0.0706
     22 C17         5.0404   -2.0933   -2.5217 C.ar      1 <0>        -0.1869
     23 C18         4.8372   -3.3706   -2.0111 C.ar      1 <0>         0.2196
     24 C19         3.5586   -3.9043   -1.9675 C.ar      1 <0>        -0.1596
     25 N3          5.9207   -4.1136   -1.5366 N.pl3     1 <0>        -0.7409
     26 C20         7.2712   -3.5472   -1.5770 C.3       1 <0>         0.0971
     27 C21         8.2656   -4.5580   -1.0023 C.3       1 <0>         0.0964
     28 C22         9.6550   -3.9214   -0.9289 C.3       1 <0>         0.0474
     29 O3         10.5585   -4.8226   -0.2857 O.3       1 <0>        -0.5628
     30 O4          8.3139   -5.7108   -1.8454 O.3       1 <0>        -0.5475
     31 H1          1.0048    1.8381    0.0023 H         1 <0>         0.0768
     32 H2         -0.5450    1.8219   -0.8730 H         1 <0>         0.0889
     33 H3         -0.5280    1.8123    0.9069 H         1 <0>         0.0863
     34 H4         -0.0024   -0.3968   -2.1298 H         1 <0>         0.1794
     35 H5          0.0213    0.5184    2.8269 H         1 <0>         0.1325
     36 H6          0.0620   -1.3033    4.4698 H         1 <0>         0.1410
     37 H7          0.0662   -4.1953    1.3310 H         1 <0>         0.1323
     38 H8         -1.2258   -5.7978   -3.2177 H         1 <0>         0.4306
     39 H9          1.8638   -1.2968   -3.3304 H         1 <0>         0.1195
     40 H10         4.1360   -0.3625   -3.3895 H         1 <0>         0.1255
     41 H11         6.0368   -1.6775   -2.5502 H         1 <0>         0.1211
     42 H12         3.3979   -4.8942   -1.5665 H         1 <0>         0.1231
     43 H13         5.7790   -5.0046   -1.1804 H         1 <0>         0.4060
     44 H14         7.5393   -3.3201   -2.6088 H         1 <0>         0.0663
     45 H15         7.2995   -2.6326   -0.9846 H         1 <0>         0.0714
     46 H16         7.9475   -4.8523   -0.0022 H         1 <0>         0.1122
     47 H17        10.0106   -3.7081   -1.9369 H         1 <0>         0.0528
     48 H18         9.5999   -2.9938   -0.3592 H         1 <0>         0.0582
     49 H19        11.4605   -4.4838   -0.2043 H         1 <0>         0.3833
     50 H20         8.5901   -5.5231   -2.7529 H         1 <0>         0.3762
@<TRIPOS>BOND
     1    1    2 1
     2    1   31 1
     3    1   32 1
     4    1   33 1
     5    2    6 1
     6    2    3 1
     7    3    4 2
     8    3   34 1
     9    4    5 1
    10    4   12 1
    11    5   10 ar
    12    5    6 ar
    13    6    7 ar
    14    7    8 ar
    15    7   35 1
    16    8    9 ar
    17    8   36 1
    18    9   10 ar
    19    9   11 1
    20   10   37 1
    21   12   17 1
    22   12   13 2
    23   13   14 1
    24   13   19 1
    25   14   15 2
    26   14   16 am
    27   16   17 am
    28   16   38 1
    29   17   18 2
    30   19   24 ar
    31   19   20 ar
    32   20   21 ar
    33   20   39 1
    34   21   22 ar
    35   21   40 1
    36   22   23 ar
    37   22   41 1
    38   23   24 ar
    39   23   25 1
    40   24   42 1
    41   25   26 1
    42   25   43 1
    43   26   27 1
    44   26   44 1
    45   26   45 1
    46   27   28 1
    47   27   30 1
    48   27   46 1
    49   28   29 1
    50   28   47 1
    51   28   48 1
    52   29   49 1
    53   30   50 1
@<TRIPOS>MOLECULE
CHEMBL1082152
   50    53     0     0     0
SMALL
USER_CHARGES

@<TRIPOS>ATOM
      1 C1         -0.0178    1.4608    0.0101 C.3       1 <0>         0.0725
      2 N1          0.0021   -0.0041    0.0020 N.pl3     1 <0>        -0.4693
      3 C2          0.0078   -0.7714   -1.1169 C.2       1 <0>         0.1106
      4 C3          0.0279   -2.1024   -0.7613 C.2       1 <0>        -0.1478
      5 C4          0.0349   -2.1375    0.7127 C.ar      1 <0>        -0.0457
      6 C5          0.0236   -0.7975    1.1323 C.ar      1 <0>         0.0816
      7 C6          0.0322   -0.5086    2.4928 C.ar      1 <0>        -0.0897
      8 C7          0.0550   -1.5331    3.4146 C.ar      1 <0>        -0.1331
      9 C8          0.0696   -2.8581    2.9990 C.ar      1 <0>         0.0832
     10 C9          0.0533   -3.1645    1.6532 C.ar      1 <0>        -0.1096
     11 F1          0.0924   -3.8507    3.9152 F         1 <0>        -0.1388
     12 C10         0.0395   -3.2561   -1.6695 C.2       1 <0>        -0.0175
     13 C11         1.1154   -3.7242   -2.4124 C.2       1 <0>        -0.0748
     14 C12         0.6219   -4.8960   -3.1575 C.2       1 <0>         0.5603
     15 O1          1.2785   -5.5770   -3.9205 O.2       1 <0>        -0.4467
     16 N2         -0.6729   -5.0881   -2.8549 N.am      1 <0>        -0.6894
     17 C13        -1.0941   -4.1632   -1.9753 C.2       1 <0>         0.5551
     18 O2         -2.2133   -4.0819   -1.5119 O.2       1 <0>        -0.4424
     19 C14         2.4804   -3.1603   -2.4490 C.ar      1 <0>         0.0136
     20 C15         2.6959   -1.8776   -2.9606 C.ar      1 <0>        -0.1475
     21 C16         3.9715   -1.3537   -2.9935 C.ar      1 <0>        -0.0707
     22 C17         5.0404   -2.0933   -2.5217 C.ar      1 <0>        -0.1871
     23 C18         4.8372   -3.3706   -2.0111 C.ar      1 <0>         0.2196
     24 C19         3.5586   -3.9043   -1.9675 C.ar      1 <0>        -0.1595
     25 N3          5.9207   -4.1136   -1.5366 N.pl3     1 <0>        -0.7406
     26 C20         7.2712   -3.5472   -1.5770 C.3       1 <0>         0.0967
     27 C21         8.2656   -4.5580   -1.0023 C.3       1 <0>         0.0964
     28 C22         9.6760   -3.9664   -1.0445 C.3       1 <0>         0.0474
     29 O3         10.6188   -4.9516   -0.6170 O.3       1 <0>        -0.5627
     30 O4          7.9142   -4.8557    0.3504 O.3       1 <0>        -0.5473
     31 H1          1.0048    1.8381    0.0023 H         1 <0>         0.0768
     32 H2         -0.5450    1.8219   -0.8730 H         1 <0>         0.0888
     33 H3         -0.5280    1.8123    0.9069 H         1 <0>         0.0863
     34 H4         -0.0024   -0.3968   -2.1298 H         1 <0>         0.1794
     35 H5          0.0213    0.5184    2.8269 H         1 <0>         0.1325
     36 H6          0.0620   -1.3033    4.4698 H         1 <0>         0.1410
     37 H7          0.0662   -4.1953    1.3310 H         1 <0>         0.1323
     38 H8         -1.2258   -5.7978   -3.2177 H         1 <0>         0.4305
     39 H9          1.8638   -1.2968   -3.3304 H         1 <0>         0.1195
     40 H10         4.1360   -0.3625   -3.3895 H         1 <0>         0.1254
     41 H11         6.0368   -1.6775   -2.5502 H         1 <0>         0.1211
     42 H12         3.3979   -4.8942   -1.5665 H         1 <0>         0.1231
     43 H13         5.7790   -5.0046   -1.1804 H         1 <0>         0.4066
     44 H14         7.5393   -3.3201   -2.6088 H         1 <0>         0.0722
     45 H15         7.2995   -2.6326   -0.9846 H         1 <0>         0.0652
     46 H16         8.2374   -5.4725   -1.5947 H         1 <0>         0.1125
     47 H17         9.9101   -3.6574   -2.0633 H         1 <0>         0.0585
     48 H18         9.7276   -3.1025   -0.3819 H         1 <0>         0.0524
     49 H19        11.5359   -4.6451   -0.6187 H         1 <0>         0.3833
     50 H20         7.9186   -4.0864    0.9363 H         1 <0>         0.3759
@<TRIPOS>BOND
     1    1    2 1
     2    1   31 1
     3    1   32 1
     4    1   33 1
     5    2    6 1
     6    2    3 1
     7    3    4 2
     8    3   34 1
     9    4    5 1
    10    4   12 1
    11    5   10 ar
    12    5    6 ar
    13    6    7 ar
    14    7    8 ar
    15    7   35 1
    16    8    9 ar
    17    8   36 1
    18    9   10 ar
    19    9   11 1
    20   10   37 1
    21   12   17 1
    22   12   13 2
    23   13   14 1
    24   13   19 1
    25   14   15 2
    26   14   16 am
    27   16   17 am
    28   16   38 1
    29   17   18 2
    30   19   24 ar
    31   19   20 ar
    32   20   21 ar
    33   20   39 1
    34   21   22 ar
    35   21   40 1
    36   22   23 ar
    37   22   41 1
    38   23   24 ar
    39   23   25 1
    40   24   42 1
    41   25   26 1
    42   25   43 1
    43   26   27 1
    44   26   44 1
    45   26   45 1
    46   27   28 1
    47   27   30 1
    48   27   46 1
    49   28   29 1
    50   28   47 1
    51   28   48 1
    52   29   49 1
    53   30   50 1
@<TRIPOS>MOLECULE
CHEMBL272165
   50    53     0     0     0
SMALL
USER_CHARGES

@<TRIPOS>ATOM
      1 C1         -0.0168    1.3857    0.0097 C.ar      1 <0>        -0.1740
      2 C2          1.1705    2.0906    0.0021 C.ar      1 <0>         0.0172
      3 C3          2.3775    1.4154   -0.0135 C.ar      1 <0>        -0.7004
      4 C4          2.4002    0.0326   -0.0211 C.ar      1 <0>         0.0139
      5 C5          1.2170   -0.6791   -0.0137 C.ar      1 <0>        -0.1583
      6 C6          0.0021   -0.0041    0.0020 C.ar      1 <0>         0.2247
      7 N1         -1.1956   -0.7198    0.0096 N.pl3     1 <0>        -0.4860
      8 N2         -1.1763   -2.0096    0.0025 N.2       1 <0>        -0.1088
      9 C7         -2.3044   -2.6837    0.0096 C.2       1 <0>        -0.0144
     10 C8         -2.4767   -4.1556    0.0094 C.ar      1 <0>        -0.0825
     11 C9         -1.5822   -5.2148    0.0014 C.ar      1 <0>         0.0147
     12 C10        -2.0643   -6.5243    0.0032 C.ar      1 <0>        -0.1572
     13 C11        -3.4440   -6.7565    0.0131 C.ar      1 <0>        -0.0423
     14 C12        -4.3287   -5.7035    0.0205 C.ar      1 <0>        -0.1383
     15 C13        -3.8602   -4.3908    0.0193 C.ar      1 <0>         0.1783
     16 N3         -4.5294   -3.1772    0.0254 N.am      1 <0>        -0.6404
     17 C14        -3.6734   -2.1416    0.0261 C.2       1 <0>         0.5485
     18 O1         -3.9763   -0.9625    0.0355 O.2       1 <0>        -0.5119
     19 C15        -1.1220   -7.6606   -0.0057 C.2       1 <0>         0.5656
     20 O2          0.0765   -7.4563   -0.0146 O.2       1 <0>        -0.5290
     21 N4         -1.5902   -8.9244   -0.0040 N.am      1 <0>        -0.7240
     22 C16        -0.6550  -10.0520   -0.0128 C.3       1 <0>         0.1606
     23 C17        -1.4279  -11.3457   -0.0088 C.ar      1 <0>        -0.0669
     24 C18        -1.7877  -11.9537    1.1842 C.ar      1 <0>        -0.1547
     25 C19        -2.4964  -13.1397    1.1487 C.ar      1 <0>         0.0998
     26 N5         -2.8294  -13.6923   -0.0014 N.ar      1 <0>        -0.4791
     27 C20        -2.5041  -13.1423   -1.1549 C.ar      1 <0>         0.0999
     28 C21        -1.8011  -11.9532   -1.1979 C.ar      1 <0>        -0.1545
     29 S1          3.8900    2.3193   -0.0243 S.o2      1 <0>         2.7045
     30 O3          4.8717    1.4614   -0.5894 O.2       1 <0>        -0.9617
     31 O4          3.5943    3.5994   -0.5657 O.2       1 <0>        -0.9629
     32 N6          4.3262    2.5625    1.5546 N.pl3     1 <0>        -1.2502
     33 H1         -0.9588    1.9136    0.0260 H         1 <0>         0.1423
     34 H2          1.1567    3.1705    0.0080 H         1 <0>         0.1528
     35 H3          3.3446   -0.4912   -0.0333 H         1 <0>         0.1524
     36 H4          1.2355   -1.7589   -0.0204 H         1 <0>         0.1510
     37 H5         -2.0428   -0.2475    0.0202 H         1 <0>         0.4132
     38 H6         -0.5186   -5.0276   -0.0065 H         1 <0>         0.1497
     39 H7         -3.8171   -7.7700    0.0144 H         1 <0>         0.1369
     40 H8         -5.3916   -5.8946    0.0277 H         1 <0>         0.1411
     41 H9         -5.4951   -3.0867    0.0325 H         1 <0>         0.4250
     42 H10        -2.5464   -9.0873    0.0032 H         1 <0>         0.4015
     43 H11        -0.0344  -10.0023   -0.9075 H         1 <0>         0.0850
     44 H12        -0.0207  -10.0050    0.8724 H         1 <0>         0.0850
     45 H13        -1.5173  -11.5064    2.1293 H         1 <0>         0.1384
     46 H14        -2.7804  -13.6197    2.0736 H         1 <0>         0.1591
     47 H15        -2.7941  -13.6246   -2.0768 H         1 <0>         0.1592
     48 H16        -1.5420  -11.5051   -2.1457 H         1 <0>         0.1385
     49 H17         3.7677    2.2208    2.2703 H         1 <0>         0.4169
     50 H18         5.1404    3.0466    1.7638 H         1 <0>         0.4217
@<TRIPOS>BOND
     1    1    6 ar
     2    1    2 ar
     3    1   33 1
     4    2    3 ar
     5    2   34 1
     6    3    4 ar
     7    3   29 1
     8    4    5 ar
     9    4   35 1
    10    5    6 ar
    11    5   36 1
    12    6    7 1
    13    7    8 1
    14    7   37 1
    15    8    9 2
    16    9   17 1
    17    9   10 1
    18   10   15 ar
    19   10   11 ar
    20   11   12 ar
    21   11   38 1
    22   12   13 ar
    23   12   19 1
    24   13   14 ar
    25   13   39 1
    26   14   15 ar
    27   14   40 1
    28   15   16 1
    29   16   17 am
    30   16   41 1
    31   17   18 2
    32   19   20 2
    33   19   21 am
    34   21   22 1
    35   21   42 1
    36   22   23 1
    37   22   43 1
    38   22   44 1
    39   23   28 ar
    40   23   24 ar
    41   24   25 ar
    42   24   45 1
    43   25   26 ar
    44   25   46 1
    45   26   27 ar
    46   27   28 ar
    47   27   47 1
    48   28   48 1
    49   29   30 2
    50   29   31 2
    51   29   32 1
    52   32   49 1
    53   32   50 1
@<TRIPOS>MOLECULE
CHEMBL272380
   49    52     0     0     0
SMALL
USER_CHARGES

@<TRIPOS>ATOM
      1 C1         -0.0167    1.3779    0.0096 C.ar      1 <0>        -0.0717
      2 C2          1.1591    2.1013    0.0023 C.ar      1 <0>        -0.1327
      3 C3          2.3868    1.4344   -0.0131 C.ar      1 <0>         0.0171
      4 C4          2.4084    0.0298   -0.0208 C.ar      1 <0>        -0.0708
      5 C5          1.2105   -0.6935   -0.0133 C.ar      1 <0>         0.1512
      6 C6          0.0021   -0.0041    0.0020 C.ar      1 <0>        -0.1322
      7 N1          1.4971   -2.0541   -0.0233 N.am      1 <0>        -0.6425
      8 C7          2.8226   -2.2751   -0.0372 C.2       1 <0>         0.5470
      9 O1          3.3674   -3.3639   -0.0491 O.2       1 <0>        -0.5172
     10 C8          3.4999   -0.9667   -0.0366 C.2       1 <0>        -0.0043
     11 N2          4.7947   -0.7355   -0.0481 N.2       1 <0>        -0.1210
     12 N3          5.6259   -1.7219   -0.0613 N.pl3     1 <0>        -0.4892
     13 C9          6.9992   -1.4767   -0.0735 C.ar      1 <0>         0.2300
     14 C10         7.4738   -0.1703   -0.0657 C.ar      1 <0>        -0.1628
     15 C11         8.8337    0.0685   -0.0773 C.ar      1 <0>         0.0148
     16 C12         9.7233   -0.9903   -0.0968 C.ar      1 <0>        -0.7020
     17 C13         9.2548   -2.2916   -0.1051 C.ar      1 <0>         0.0197
     18 C14         7.8964   -2.5383   -0.0878 C.ar      1 <0>        -0.1755
     19 S1         11.4578   -0.6806   -0.1116 S.o2      1 <0>         2.7037
     20 O2         12.0707   -1.8298   -0.6800 O.2       1 <0>        -0.9628
     21 O3         11.6332    0.6220   -0.6516 O.2       1 <0>        -0.9618
     22 N4         11.9561   -0.6100    1.4661 N.pl3     1 <0>        -1.2502
     23 C15         3.6452    2.1962   -0.0215 C.2       1 <0>        -0.1149
     24 C16         3.6175    3.5404   -0.0144 C.2       1 <0>        -0.0918
     25 C17         4.8775    4.3030   -0.0228 C.ar      1 <0>        -0.0696
     26 C18         6.1036    3.6315   -0.0439 C.ar      1 <0>        -0.0950
     27 C19         7.2796    4.3495   -0.0517 C.ar      1 <0>        -0.1437
     28 C20         7.2483    5.7381   -0.0381 C.ar      1 <0>         0.1107
     29 C21         6.0327    6.4099   -0.0171 C.ar      1 <0>        -0.1447
     30 C22         4.8512    5.7009   -0.0155 C.ar      1 <0>        -0.0875
     31 O4          8.4106    6.4416   -0.0449 O.3       1 <0>        -0.4994
     32 H1         -0.9629    1.8983    0.0260 H         1 <0>         0.1378
     33 H2          1.1299    3.1809    0.0080 H         1 <0>         0.1370
     34 H3         -0.9281   -0.5528    0.0083 H         1 <0>         0.1334
     35 H4          0.8259   -2.7543   -0.0207 H         1 <0>         0.4234
     36 H5          5.2960   -2.6341   -0.0628 H         1 <0>         0.4134
     37 H6          6.7797    0.6570   -0.0509 H         1 <0>         0.1453
     38 H7          9.2032    1.0833   -0.0716 H         1 <0>         0.1506
     39 H8          9.9525   -3.1159   -0.1207 H         1 <0>         0.1527
     40 H9          7.5313   -3.5547   -0.0897 H         1 <0>         0.1425
     41 H10        11.3146   -0.7328    2.1833 H         1 <0>         0.4170
     42 H11        12.8894   -0.4458    1.6731 H         1 <0>         0.4218
     43 H12         4.5915    1.6757   -0.0333 H         1 <0>         0.1314
     44 H13         2.6712    4.0609   -0.0026 H         1 <0>         0.1276
     45 H14         6.1289    2.5519   -0.0538 H         1 <0>         0.1279
     46 H15         8.2272    3.8317   -0.0680 H         1 <0>         0.1322
     47 H16         6.0135    7.4896   -0.0063 H         1 <0>         0.1312
     48 H17         3.9064    6.2241   -0.0037 H         1 <0>         0.1308
     49 H18         8.7368    6.6537   -0.9302 H         1 <0>         0.3933
@<TRIPOS>BOND
     1    1    6 ar
     2    1    2 ar
     3    1   32 1
     4    2    3 ar
     5    2   33 1
     6    3    4 ar
     7    3   23 1
     8    4   10 1
     9    4    5 ar
    10    5    6 ar
    11    5    7 1
    12    6   34 1
    13    7    8 am
    14    7   35 1
    15    8    9 2
    16    8   10 1
    17   10   11 2
    18   11   12 1
    19   12   13 1
    20   12   36 1
    21   13   18 ar
    22   13   14 ar
    23   14   15 ar
    24   14   37 1
    25   15   16 ar
    26   15   38 1
    27   16   17 ar
    28   16   19 1
    29   17   18 ar
    30   17   39 1
    31   18   40 1
    32   19   20 2
    33   19   21 2
    34   19   22 1
    35   22   41 1
    36   22   42 1
    37   23   24 2
    38   23   43 1
    39   24   25 1
    40   24   44 1
    41   25   30 ar
    42   25   26 ar
    43   26   27 ar
    44   26   45 1
    45   27   28 ar
    46   27   46 1
    47   28   29 ar
    48   28   31 1
    49   29   30 ar
    50   29   47 1
    51   30   48 1
    52   31   49 1
@<TRIPOS>MOLECULE
CHEMBL136397
   49    52     0     0     0
SMALL
USER_CHARGES

@<TRIPOS>ATOM
      1 C1          2.3585    4.0797   -0.8635 C.ar      1 <0>        -0.0864
      2 C2          3.6578    3.7986   -1.2427 C.ar      1 <0>        -0.1229
      3 C3          4.1945    2.5314   -1.0125 C.ar      1 <0>        -0.0082
      4 C4          3.4010    1.5487   -0.3924 C.ar      1 <0>        -0.0680
      5 C5          2.0849    1.8474   -0.0124 C.ar      1 <0>         0.1128
      6 C6          1.5755    3.1191   -0.2546 C.ar      1 <0>        -0.1174
      7 N1          1.5429    0.7132    0.5663 N.pl3     1 <0>        -0.5768
      8 H1          0.6410    0.6480    0.9174 H         1 <0>         0.4253
      9 C7          2.4532   -0.2970    0.5734 C.2       1 <0>         0.3099
     10 C8          3.6332    0.1474   -0.0065 C.2       1 <0>        -0.1183
     11 N2          4.7672   -0.5632   -0.1812 N.2       1 <0>        -0.0712
     12 N3          5.3004   -0.6492   -1.3527 N.2       1 <0>        -0.1685
     13 C9          4.5262   -0.4946   -2.4695 C.ar      1 <0>         0.0690
     14 C10         5.1170   -0.1740   -3.6944 C.ar      1 <0>        -0.0863
     15 C11         4.3300   -0.0200   -4.8165 C.ar      1 <0>        -0.0159
     16 C12         2.9584   -0.1823   -4.7313 C.ar      1 <0>        -0.6635
     17 C13         2.3662   -0.4994   -3.5214 C.ar      1 <0>        -0.0094
     18 C14         3.1412   -0.6621   -2.3922 C.ar      1 <0>        -0.1424
     19 S1          1.9610    0.0164   -6.1702 S.o2      1 <0>         2.7003
     20 O1          0.6560    0.3494   -5.7170 O.2       1 <0>        -0.9602
     21 O2          2.6934    0.8472   -7.0604 O.2       1 <0>        -0.9549
     22 N4          1.8458   -1.4682   -6.8949 N.pl3     1 <0>        -1.2472
     23 O3          2.2423   -1.5379    1.0676 O.3       1 <0>        -0.4463
     24 C15         5.5759    2.2257   -1.4145 C.2       1 <0>        -0.1312
     25 C16         6.3282    3.1695   -2.0070 C.2       1 <0>        -0.0892
     26 C17         7.7116    2.8634   -2.4096 C.ar      1 <0>        -0.0705
     27 C18         8.2428    1.5903   -2.1819 C.ar      1 <0>        -0.0939
     28 C19         9.5375    1.3088   -2.5603 C.ar      1 <0>        -0.1415
     29 C20        10.3147    2.2874   -3.1666 C.ar      1 <0>         0.1095
     30 C21         9.7915    3.5537   -3.3950 C.ar      1 <0>        -0.1449
     31 C22         8.4958    3.8431   -3.0258 C.ar      1 <0>        -0.0871
     32 O4         11.5910    2.0053   -3.5371 O.3       1 <0>        -0.4994
     33 H2          1.9522    5.0644   -1.0416 H         1 <0>         0.1370
     34 H3          4.2579    4.5605   -1.7180 H         1 <0>         0.1344
     35 H4          0.5625    3.3562    0.0353 H         1 <0>         0.1310
     36 H5          6.1874   -0.0467   -3.7622 H         1 <0>         0.1466
     37 H6          4.7853    0.2281   -5.7639 H         1 <0>         0.1521
     38 H7          1.2951   -0.6242   -3.4622 H         1 <0>         0.1443
     39 H8          2.6782   -0.9139   -1.4495 H         1 <0>         0.1313
     40 H9          1.0531   -1.6992   -7.4039 H         1 <0>         0.4230
     41 H10         2.5711   -2.1067   -6.8103 H         1 <0>         0.4181
     42 H11         1.8822   -2.1621    0.4228 H         1 <0>         0.4007
     43 H12         5.9860    1.2430   -1.2338 H         1 <0>         0.1315
     44 H13         5.9181    4.1522   -2.1878 H         1 <0>         0.1263
     45 H14         7.6395    0.8290   -1.7099 H         1 <0>         0.1330
     46 H15         9.9488    0.3257   -2.3848 H         1 <0>         0.1322
     47 H16        10.3996    4.3113   -3.8667 H         1 <0>         0.1310
     48 H17         8.0882    4.8265   -3.2082 H         1 <0>         0.1299
     49 H18        11.6724    1.6613   -4.4371 H         1 <0>         0.3920
@<TRIPOS>BOND
     1    1    6 ar
     2    1    2 ar
     3    1   33 1
     4    2    3 ar
     5    2   34 1
     6    3    4 ar
     7    3   24 1
     8    4   10 1
     9    4    5 ar
    10    5    6 ar
    11    5    7 1
    12    6   35 1
    13    7    8 1
    14    7    9 1
    15    9   10 2
    16    9   23 1
    17   10   11 1
    18   11   12 2
    19   12   13 1
    20   13   18 ar
    21   13   14 ar
    22   14   15 ar
    23   14   36 1
    24   15   16 ar
    25   15   37 1
    26   16   17 ar
    27   16   19 1
    28   17   18 ar
    29   17   38 1
    30   18   39 1
    31   19   20 2
    32   19   21 2
    33   19   22 1
    34   22   40 1
    35   22   41 1
    36   23   42 1
    37   24   25 2
    38   24   43 1
    39   25   26 1
    40   25   44 1
    41   26   31 ar
    42   26   27 ar
    43   27   28 ar
    44   27   45 1
    45   28   29 ar
    46   28   46 1
    47   29   30 ar
    48   29   32 1
    49   30   31 ar
    50   30   47 1
    51   31   48 1
    52   32   49 1
@<TRIPOS>MOLECULE
CHEMBL136397
   49    52     0     0     0
SMALL
USER_CHARGES

@<TRIPOS>ATOM
      1 C1         -0.0166    1.3766    0.0096 C.ar      1 <0>        -0.0912
      2 C2          1.1607    2.1011    0.0023 C.ar      1 <0>        -0.1198
      3 C3          2.3888    1.4390   -0.0134 C.ar      1 <0>        -0.0039
      4 C4          2.4136    0.0322   -0.0212 C.ar      1 <0>        -0.0381
      5 C5          1.2121   -0.6903   -0.0131 C.ar      1 <0>         0.0986
      6 C6          0.0021   -0.0041    0.0020 C.ar      1 <0>        -0.1140
      7 N1          1.5275   -2.0377   -0.0239 N.pl3     1 <0>        -0.5754
      8 H1          0.8780   -2.7582   -0.0214 H         1 <0>         0.4237
      9 C7          2.8764   -2.2091   -0.0384 C.2       1 <0>         0.3512
     10 C8          3.4947   -0.9666   -0.0377 C.2       1 <0>        -0.0468
     11 N2          4.8221   -0.7228   -0.0493 N.2       1 <0>        -0.1408
     12 N3          5.6582   -1.7051   -0.0633 N.2       1 <0>        -0.2767
     13 C9          7.0033   -1.4580   -0.0751 C.ar      1 <0>         0.1345
     14 C10         7.4756   -0.1431   -0.0661 C.ar      1 <0>        -0.1470
     15 C11         8.8334    0.0984   -0.0776 C.ar      1 <0>        -0.0167
     16 C12         9.7273   -0.9577   -0.0980 C.ar      1 <0>        -0.6761
     17 C13         9.2668   -2.2627   -0.1074 C.ar      1 <0>        -0.0125
     18 C14         7.9118   -2.5194   -0.0902 C.ar      1 <0>        -0.1001
     19 S1         11.4603   -0.6395   -0.1125 S.o2      1 <0>         2.7015
     20 O1         12.0788   -1.7851   -0.6818 O.2       1 <0>        -0.9619
     21 O2         11.6292    0.6645   -0.6515 O.2       1 <0>        -0.9595
     22 N4         11.9582   -0.5676    1.4652 N.pl3     1 <0>        -1.2479
     23 O3          3.5143   -3.4014   -0.0511 O.3       1 <0>        -0.4425
     24 C15         3.6450    2.2040   -0.0223 C.2       1 <0>        -0.1053
     25 C16         3.6136    3.5482   -0.0153 C.2       1 <0>        -0.1030
     26 C17         4.8715    4.3143   -0.0241 C.ar      1 <0>        -0.0659
     27 C18         6.0995    3.6462   -0.0456 C.ar      1 <0>        -0.0964
     28 C19         7.2736    4.3674   -0.0538 C.ar      1 <0>        -0.1430
     29 C20         7.2386    5.7559   -0.0403 C.ar      1 <0>         0.1084
     30 C21         6.0211    6.4243   -0.0189 C.ar      1 <0>        -0.1443
     31 C22         4.8415    5.7121   -0.0169 C.ar      1 <0>        -0.0898
     32 O4          8.3989    6.4625   -0.0475 O.3       1 <0>        -0.4994
     33 H2         -0.9629    1.8969    0.0260 H         1 <0>         0.1363
     34 H3          1.1298    3.1807    0.0083 H         1 <0>         0.1351
     35 H4         -0.9274   -0.5540    0.0083 H         1 <0>         0.1301
     36 H5          6.7791    0.6822   -0.0506 H         1 <0>         0.1397
     37 H6          9.2000    1.1143   -0.0711 H         1 <0>         0.1438
     38 H7          9.9702   -3.0820   -0.1236 H         1 <0>         0.1494
     39 H8          7.5539   -3.5384   -0.0931 H         1 <0>         0.1438
     40 H9         12.8611   -0.8319    1.7014 H         1 <0>         0.4221
     41 H10        11.3469   -0.2613    2.1532 H         1 <0>         0.4176
     42 H11         3.6912   -3.7434   -0.9382 H         1 <0>         0.4109
     43 H12         4.5926    1.6861   -0.0344 H         1 <0>         0.1330
     44 H13         2.6660    4.0661   -0.0031 H         1 <0>         0.1256
     45 H14         6.1277    2.5666   -0.0555 H         1 <0>         0.1278
     46 H15         8.2226    3.8522   -0.0704 H         1 <0>         0.1316
     47 H16         5.9990    7.5040   -0.0084 H         1 <0>         0.1306
     48 H17         3.8953    6.2327   -0.0051 H         1 <0>         0.1300
     49 H18         8.7242    6.6755   -0.9329 H         1 <0>         0.3927
@<TRIPOS>BOND
     1    1    6 ar
     2    1    2 ar
     3    1   33 1
     4    2    3 ar
     5    2   34 1
     6    3    4 ar
     7    3   24 1
     8    4   10 1
     9    4    5 ar
    10    5    6 ar
    11    5    7 1
    12    6   35 1
    13    7    8 1
    14    7    9 1
    15    9   10 2
    16    9   23 1
    17   10   11 1
    18   11   12 2
    19   12   13 1
    20   13   18 ar
    21   13   14 ar
    22   14   15 ar
    23   14   36 1
    24   15   16 ar
    25   15   37 1
    26   16   17 ar
    27   16   19 1
    28   17   18 ar
    29   17   38 1
    30   18   39 1
    31   19   20 2
    32   19   21 2
    33   19   22 1
    34   22   40 1
    35   22   41 1
    36   23   42 1
    37   24   25 2
    38   24   43 1
    39   25   26 1
    40   25   44 1
    41   26   31 ar
    42   26   27 ar
    43   27   28 ar
    44   27   45 1
    45   28   29 ar
    46   28   46 1
    47   29   30 ar
    48   29   32 1
    49   30   31 ar
    50   30   47 1
    51   31   48 1
    52   32   49 1
@<TRIPOS>MOLECULE
CHEMBL103355
   42    44     0     0     0
SMALL
USER_CHARGES

@<TRIPOS>ATOM
      1 C1          1.2685   -6.9820    4.7497 C.3       1 <0>        -0.1134
      2 C2          0.8857   -6.2137    3.5111 C.ar      1 <0>        -0.0728
      3 C3          0.5753   -6.8919    2.3467 C.ar      1 <0>        -0.1160
      4 C4          0.2234   -6.1915    1.2074 C.ar      1 <0>        -0.1244
      5 C5          0.1805   -4.8095    1.2299 C.ar      1 <0>         0.0512
      6 C6          0.4918   -4.1254    2.4000 C.ar      1 <0>         0.1341
      7 C7          0.8398   -4.8334    3.5424 C.ar      1 <0>        -0.1154
      8 N1          0.4497   -2.7269    2.4272 N.pl3     1 <0>        -0.6408
      9 C8          0.3473   -2.0601    3.6381 C.ar      1 <0>         0.4657
     10 C9          0.4303   -0.6665    3.6890 C.ar      1 <0>        -0.3167
     11 C10         0.3224   -0.0446    4.9173 C.ar      1 <0>         0.2177
     12 N2          0.1446   -0.7819    6.0039 N.ar      1 <0>        -0.5817
     13 C11         0.0694   -2.1023    5.9262 C.ar      1 <0>         0.5897
     14 N3          0.1630   -2.7368    4.7671 N.ar      1 <0>        -0.5990
     15 N4         -0.1170   -2.8375    7.0853 N.pl3     1 <0>        -0.6392
     16 C12        -0.3294   -2.1823    8.3021 C.ar      1 <0>         0.2300
     17 C13        -1.0556   -0.9988    8.3379 C.ar      1 <0>        -0.1349
     18 C14        -1.2639   -0.3544    9.5415 C.ar      1 <0>        -0.0006
     19 C15        -0.7502   -0.8860   10.7101 C.ar      1 <0>        -0.6976
     20 C16        -0.0264   -2.0639   10.6779 C.ar      1 <0>         0.0071
     21 C17         0.1804   -2.7166    9.4785 C.ar      1 <0>        -0.1710
     22 S1         -1.0178   -0.0604   12.2436 S.o2      1 <0>         2.7033
     23 O1          0.0276   -0.4713   13.1139 O.2       1 <0>        -0.9645
     24 O2         -1.2580    1.3053   11.9330 O.2       1 <0>        -0.9616
     25 N5         -2.4257   -0.6555   12.8808 N.pl3     1 <0>        -1.2490
     26 F1         -0.1628   -4.1250    0.1168 F         1 <0>        -0.1405
     27 H1          0.3730   -7.2063    5.3294 H         1 <0>         0.0738
     28 H2          1.7585   -7.9125    4.4632 H         1 <0>         0.0701
     29 H3          1.9508   -6.3827    5.3526 H         1 <0>         0.0671
     30 H4          0.6081   -7.9712    2.3268 H         1 <0>         0.1329
     31 H5         -0.0177   -6.7242    0.2994 H         1 <0>         0.1393
     32 H6          1.0782   -4.3054    4.4539 H         1 <0>         0.1677
     33 H7          0.4922   -2.2242    1.5988 H         1 <0>         0.4272
     34 H8          0.5760   -0.0887    2.7883 H         1 <0>         0.1484
     35 H9          0.3827    1.0311    4.9916 H         1 <0>         0.1763
     36 H10        -0.1003   -3.8068    7.0529 H         1 <0>         0.4267
     37 H11        -1.4565   -0.5827    7.4254 H         1 <0>         0.1443
     38 H12        -1.8285    0.5658    9.5700 H         1 <0>         0.1451
     39 H13         0.3738   -2.4763   11.5924 H         1 <0>         0.1463
     40 H14         0.7419   -3.6388    9.4546 H         1 <0>         0.1368
     41 H15        -2.5455   -0.6917   13.8427 H         1 <0>         0.4214
     42 H16        -3.1305   -0.9680   12.2922 H         1 <0>         0.4169
@<TRIPOS>BOND
     1    1    2 1
     2    1   27 1
     3    1   28 1
     4    1   29 1
     5    2    7 ar
     6    2    3 ar
     7    3    4 ar
     8    3   30 1
     9    4    5 ar
    10    4   31 1
    11    5    6 ar
    12    5   26 1
    13    6    7 ar
    14    6    8 1
    15    7   32 1
    16    8    9 1
    17    8   33 1
    18    9   14 ar
    19    9   10 ar
    20   10   11 ar
    21   10   34 1
    22   11   12 ar
    23   11   35 1
    24   12   13 ar
    25   13   14 ar
    26   13   15 1
    27   15   16 1
    28   15   36 1
    29   16   21 ar
    30   16   17 ar
    31   17   18 ar
    32   17   37 1
    33   18   19 ar
    34   18   38 1
    35   19   20 ar
    36   19   22 1
    37   20   21 ar
    38   20   39 1
    39   21   40 1
    40   22   23 2
    41   22   24 2
    42   22   25 1
    43   25   41 1
    44   25   42 1
@<TRIPOS>MOLECULE
CHEMBL186396
   66    70     0     0     0
SMALL
USER_CHARGES

@<TRIPOS>ATOM
      1 C1         -0.1021    1.5017    0.0366 C.3       1 <0>        -0.0461
      2 N1         -0.0710    0.0331    0.0219 N.4       1 <0>        -0.3883
      3 C2         -1.4452   -0.4856    0.0332 C.3       1 <0>        -0.0027
      4 C3         -1.4136   -2.0152   -0.0011 C.3       1 <0>         0.0265
      5 N2         -0.6740   -2.5133    1.1672 N.3       1 <0>        -0.5350
      6 C4          0.6964   -1.9823    1.1828 C.3       1 <0>         0.0177
      7 C5          0.6474   -0.4530    1.2073 C.3       1 <0>        -0.0022
      8 C6         -0.6698   -3.9819    1.2007 C.3       1 <0>         0.0561
      9 C7         -0.1154   -4.4599    2.5442 C.3       1 <0>         0.0518
     10 O1         -0.9992   -4.0603    3.5936 O.3       1 <0>        -0.2836
     11 C8         -0.6509   -4.4083    4.8586 C.ar      1 <0>         0.2227
     12 C9          0.5231   -5.1162    5.0832 C.ar      1 <0>        -0.2774
     13 C10         0.8819   -5.4730    6.3671 C.ar      1 <0>         0.2350
     14 C11         0.0606   -5.1200    7.4441 C.ar      1 <0>        -0.2810
     15 C12        -1.1209   -4.4064    7.2119 C.ar      1 <0>         0.2293
     16 C13        -1.4670   -4.0503    5.9243 C.ar      1 <0>        -0.2135
     17 F1         -1.9185   -4.0627    8.2467 F         1 <0>        -0.1010
     18 C14         0.4388   -5.4992    8.8194 C.2       1 <0>         0.4919
     19 O2          1.4148   -6.2051    9.0109 O.2       1 <0>        -0.4108
     20 C15        -0.3283   -5.0455    9.9120 C.2       1 <0>        -0.2460
     21 C16        -1.3612   -5.7321   10.5545 C.2       1 <0>         0.4232
     22 N3         -1.8219   -4.9584   11.5320 N.2       1 <0>        -0.5226
     23 C17        -1.1477   -3.8111   11.5601 C.2       1 <0>         0.2984
     24 N4         -0.2048   -3.8286   10.5696 N.pl3     1 <0>        -0.3192
     25 C18         0.6239   -2.7809   10.3820 C.2       1 <0>         0.1474
     26 C19         0.5377   -1.6675   11.1923 C.2       1 <0>        -0.1912
     27 C20        -0.4282   -1.6275   12.2261 C.2       1 <0>        -0.0486
     28 C21        -1.2631   -2.6854   12.4001 C.2       1 <0>        -0.0926
     29 C22         1.4473   -0.5255   10.9827 C.2       1 <0>         0.4633
     30 O3          2.3371   -0.6005   10.1571 O.2       1 <0>        -0.4211
     31 C23         1.2776    0.7085   11.7751 C.ar      1 <0>        -0.1327
     32 C24         0.3710    1.6897   11.3622 C.ar      1 <0>         0.0017
     33 C25         0.2182    2.8410   12.1088 C.ar      1 <0>        -0.1033
     34 C26         0.9591    3.0252   13.2626 C.ar      1 <0>        -0.0732
     35 C27         1.8585    2.0592   13.6776 C.ar      1 <0>        -0.1012
     36 C28         2.0184    0.8996   12.9455 C.ar      1 <0>         0.0012
     37 Cl1         3.1415   -0.3146   13.4727 Cl        1 <0>        -0.0366
     38 Cl2        -0.5594    1.4613    9.9145 Cl        1 <0>        -0.0462
     39 N5         -1.8245   -6.9974   10.2295 N.pl3     1 <0>        -0.8288
     40 F2          2.0235   -6.1622    6.5839 F         1 <0>        -0.0996
     41 H1          0.9175    1.8868    0.0269 H         1 <0>         0.1247
     42 H2         -0.6352    1.8626   -0.8430 H         1 <0>         0.1250
     43 H3         -0.6118    1.8453    0.9367 H         1 <0>         0.1235
     44 H4         -1.9517   -0.1529    0.9392 H         1 <0>         0.1386
     45 H5         -1.9811   -0.1137   -0.8400 H         1 <0>         0.1371
     46 H6         -2.4329   -2.4006    0.0223 H         1 <0>         0.1259
     47 H7         -0.9192   -2.3484   -0.9136 H         1 <0>         0.0622
     48 H8          1.2165   -2.3437    2.0699 H         1 <0>         0.1222
     49 H9          1.2255   -2.3149    0.2898 H         1 <0>         0.0636
     50 H10         1.6628   -0.0569    1.2045 H         1 <0>         0.1368
     51 H11         0.1302   -0.1205    2.1073 H         1 <0>         0.1386
     52 H12        -1.6878   -4.3511    1.0758 H         1 <0>         0.1055
     53 H13        -0.0439   -4.3620    0.3934 H         1 <0>         0.0750
     54 H14        -0.0291   -5.5464    2.5358 H         1 <0>         0.0858
     55 H15         0.8676   -4.0186    2.7093 H         1 <0>         0.0715
     56 H16         1.1561   -5.3881    4.2514 H         1 <0>         0.1538
     57 H17        -2.3764   -3.4962    5.7444 H         1 <0>         0.1584
     58 H18         1.3600   -2.8140    9.5924 H         1 <0>         0.1715
     59 H19        -0.5052   -0.7615   12.8668 H         1 <0>         0.1504
     60 H20        -2.0034   -2.6687   13.1862 H         1 <0>         0.1658
     61 H21        -0.4814    3.6001   11.7911 H         1 <0>         0.1499
     62 H22         0.8349    3.9279   13.8423 H         1 <0>         0.1519
     63 H23         2.4337    2.2107   14.5791 H         1 <0>         0.1514
     64 H24        -1.3763   -7.5166    9.5435 H         1 <0>         0.4113
     65 H25        -2.5968   -7.3637   10.6879 H         1 <0>         0.4155
     66 H26         0.4012   -0.2848   -0.8112 H         1 <0>         0.4224
@<TRIPOS>BOND
     1    1    2 1
     2    1   41 1
     3    1   42 1
     4    1   43 1
     5    2    7 1
     6    2    3 1
     7    2   66 1
     8    3    4 1
     9    3   44 1
    10    3   45 1
    11    4    5 1
    12    4   46 1
    13    4   47 1
    14    5    6 1
    15    5    8 1
    16    6    7 1
    17    6   48 1
    18    6   49 1
    19    7   50 1
    20    7   51 1
    21    8    9 1
    22    8   52 1
    23    8   53 1
    24    9   10 1
    25    9   54 1
    26    9   55 1
    27   10   11 1
    28   11   16 ar
    29   11   12 ar
    30   12   13 ar
    31   12   56 1
    32   13   14 ar
    33   13   40 1
    34   14   15 ar
    35   14   18 1
    36   15   16 ar
    37   15   17 1
    38   16   57 1
    39   18   19 2
    40   18   20 1
    41   20   24 1
    42   20   21 2
    43   21   22 1
    44   21   39 1
    45   22   23 2
    46   23   28 1
    47   23   24 1
    48   24   25 1
    49   25   26 2
    50   25   58 1
    51   26   27 1
    52   26   29 1
    53   27   28 2
    54   27   59 1
    55   28   60 1
    56   29   30 2
    57   29   31 1
    58   31   36 ar
    59   31   32 ar
    60   32   33 ar
    61   32   38 1
    62   33   34 ar
    63   33   61 1
    64   34   35 ar
    65   34   62 1
    66   35   36 ar
    67   35   63 1
    68   36   37 1
    69   39   64 1
    70   39   65 1
@<TRIPOS>MOLECULE
CHEMBL380280
   48    51     0     0     0
SMALL
USER_CHARGES

@<TRIPOS>ATOM
      1 C1         -0.0341    1.5254    0.0195 C.3       1 <0>        -0.1460
      2 C2          0.0021   -0.0041    0.0020 C.3       1 <0>        -0.0573
      3 H1          0.5194   -0.3451   -0.8947 H         1 <0>         0.1112
      4 C3          0.7309   -0.5033    1.2229 C.ar      1 <0>        -0.1004
      5 C4          0.2532   -0.1986    2.4843 C.ar      1 <0>        -0.0532
      6 C5          0.9189   -0.6546    3.6052 C.ar      1 <0>        -0.1545
      7 C6          2.0689   -1.4202    3.4645 C.ar      1 <0>         0.1679
      8 C7          2.5458   -1.7249    2.1963 C.ar      1 <0>        -0.1583
      9 C8          1.8728   -1.2699    1.0794 C.ar      1 <0>        -0.0789
     10 N1          2.7459   -1.8834    4.5981 N.am      1 <0>        -0.5552
     11 C9          3.8996   -2.7898    4.5609 C.3       1 <0>         0.0948
     12 C10         4.5615   -2.6717    5.9517 C.3       1 <0>        -0.1240
     13 C11         3.3700   -2.2268    6.8312 C.3       1 <0>         0.0787
     14 H2          2.8932   -3.0912    7.2931 H         1 <0>         0.1037
     15 C12         2.4268   -1.5507    5.8608 C.2       1 <0>         0.4884
     16 O1          1.5138   -0.8173    6.1763 O.2       1 <0>        -0.5006
     17 O2          3.8041   -1.3028    7.8311 O.3       1 <0>        -0.5408
     18 C13        -1.4065   -0.5399    0.0038 C.2       1 <0>         0.5233
     19 O3         -1.7816   -1.2566    0.9075 O.2       1 <0>        -0.4872
     20 N2         -2.2494   -0.2226   -0.9989 N.am      1 <0>        -0.6517
     21 C14        -3.5530   -0.7185   -0.9972 C.2       1 <0>         0.3070
     22 C15        -4.1058   -1.5239   -0.0495 C.2       1 <0>        -0.2699
     23 C16        -5.4255   -1.7862   -0.4276 C.2       1 <0>         0.1219
     24 N3         -5.6611   -1.1663   -1.5556 N.2       1 <0>        -0.2794
     25 N4         -4.4993   -0.4817   -1.9342 N.pl3     1 <0>        -0.4912
     26 H3         -4.3917    0.0641   -2.7289 H         1 <0>         0.4364
     27 C17        -6.4087   -2.6377    0.3334 C.3       1 <0>        -0.0849
     28 C18        -5.8498   -3.5753    1.4055 C.3       1 <0>        -0.1633
     29 C19        -6.3746   -4.1474    0.0871 C.3       1 <0>        -0.1633
     30 H4          0.9847    1.9130    0.0182 H         1 <0>         0.0778
     31 H5         -0.5613    1.8865   -0.8636 H         1 <0>         0.0632
     32 H6         -0.5514    1.8664    0.9162 H         1 <0>         0.0672
     33 H7         -0.6412    0.3969    2.5931 H         1 <0>         0.1239
     34 H8          0.5456   -0.4157    4.5901 H         1 <0>         0.1542
     35 H9          3.4401   -2.3197    2.0836 H         1 <0>         0.1275
     36 H10         2.2409   -1.5098    0.0928 H         1 <0>         0.1275
     37 H11         3.5693   -3.8137    4.3861 H         1 <0>         0.0881
     38 H12         4.5978   -2.4800    3.7833 H         1 <0>         0.0936
     39 H13         4.9514   -3.6347    6.2812 H         1 <0>         0.1058
     40 H14         5.3466   -1.9156    5.9471 H         1 <0>         0.0991
     41 H15         3.0967   -0.9906    8.4118 H         1 <0>         0.3921
     42 H16        -1.9494    0.3506   -1.7216 H         1 <0>         0.4120
     43 H17        -3.6125   -1.8945    0.8369 H         1 <0>         0.1738
     44 H18        -7.3801   -2.1803    0.5212 H         1 <0>         0.1215
     45 H19        -4.7708   -3.5762    1.5604 H         1 <0>         0.1013
     46 H20        -6.4533   -3.7347    2.2990 H         1 <0>         0.1021
     47 H21        -7.3235   -4.6832    0.1133 H         1 <0>         0.1013
     48 H22        -5.6409   -4.5247   -0.6253 H         1 <0>         0.0948
@<TRIPOS>BOND
     1    1    2 1
     2    1   30 1
     3    1   31 1
     4    1   32 1
     5    2    3 1
     6    2    4 1
     7    2   18 1
     8    4    9 ar
     9    4    5 ar
    10    5    6 ar
    11    5   33 1
    12    6    7 ar
    13    6   34 1
    14    7    8 ar
    15    7   10 1
    16    8    9 ar
    17    8   35 1
    18    9   36 1
    19   10   15 am
    20   10   11 1
    21   11   12 1
    22   11   37 1
    23   11   38 1
    24   12   13 1
    25   12   39 1
    26   12   40 1
    27   13   14 1
    28   13   15 1
    29   13   17 1
    30   15   16 2
    31   17   41 1
    32   18   19 2
    33   18   20 am
    34   20   21 1
    35   20   42 1
    36   21   25 1
    37   21   22 2
    38   22   23 1
    39   22   43 1
    40   23   24 2
    41   23   27 1
    42   24   25 1
    43   25   26 1
    44   27   29 1
    45   27   28 1
    46   27   44 1
    47   28   29 1
    48   28   45 1
    49   28   46 1
    50   29   47 1
    51   29   48 1
@<TRIPOS>MOLECULE
CHEMBL380280
   48    51     0     0     0
SMALL
USER_CHARGES

@<TRIPOS>ATOM
      1 C1         -0.0188    1.5258   -0.0074 C.3       1 <0>        -0.1459
      2 C2          0.0021   -0.0041    0.0020 C.3       1 <0>        -0.0593
      3 H1          0.5255   -0.3548    0.8914 H         1 <0>         0.1113
      4 C3         -1.4117   -0.5257    0.0127 C.ar      1 <0>        -0.0973
      5 C4         -2.2702   -0.2135   -1.0255 C.ar      1 <0>        -0.0533
      6 C5         -3.5665   -0.6900   -1.0186 C.ar      1 <0>        -0.1548
      7 C6         -4.0074   -1.4838    0.0321 C.ar      1 <0>         0.1659
      8 C7         -3.1427   -1.7958    1.0730 C.ar      1 <0>        -0.1583
      9 C8         -1.8461   -1.3202    1.0578 C.ar      1 <0>        -0.0796
     10 N1         -5.3202   -1.9677    0.0423 N.am      1 <0>        -0.5548
     11 C9         -5.8504   -2.9027    1.0416 C.3       1 <0>         0.0948
     12 C10        -7.3875   -2.8061    0.9218 C.3       1 <0>        -0.1240
     13 C11        -7.5607   -2.3345   -0.5406 C.3       1 <0>         0.0787
     14 H2         -7.7090   -3.1883   -1.2018 H         1 <0>         0.1033
     15 C12        -6.2595   -1.6316   -0.8587 C.2       1 <0>         0.4882
     16 O1         -6.0879   -0.8766   -1.7923 O.2       1 <0>        -0.5012
     17 O2         -8.6580   -1.4252   -0.6463 O.3       1 <0>        -0.5410
     18 C13         0.7128   -0.5043   -1.2291 C.2       1 <0>         0.5256
     19 O3          0.1287   -1.2146   -2.0201 O.2       1 <0>        -0.4977
     20 N2          1.9974   -0.1625   -1.4513 N.am      1 <0>        -0.6362
     21 C14         2.6584   -0.6278   -2.5963 C.2       1 <0>         0.3038
     22 C15         2.1044   -1.4476   -3.5926 C.2       1 <0>        -0.2591
     23 C16         3.0594   -1.6724   -4.5234 C.2       1 <0>         0.1305
     24 N3          4.1766   -1.0220   -4.1357 N.pl3     1 <0>        -0.4675
     25 N4          3.9014   -0.3688   -2.9275 N.2       1 <0>        -0.3189
     26 H3          5.0213   -1.0064   -4.6124 H         1 <0>         0.4389
     27 C17         2.9038   -2.5022   -5.7717 C.3       1 <0>        -0.0985
     28 C18         4.1274   -3.2802   -6.2599 C.3       1 <0>        -0.1702
     29 C19         3.6532   -2.0422   -7.0238 C.3       1 <0>        -0.1699
     30 H4          1.0038    1.9031   -0.0152 H         1 <0>         0.0654
     31 H5         -0.5422    1.8765   -0.8969 H         1 <0>         0.0663
     32 H6         -0.5329    1.8876    0.8830 H         1 <0>         0.0765
     33 H7         -1.9267    0.4038   -1.8424 H         1 <0>         0.1240
     34 H8         -4.2367   -0.4453   -1.8294 H         1 <0>         0.1536
     35 H9         -3.4827   -2.4126    1.8918 H         1 <0>         0.1269
     36 H10        -1.1719   -1.5659    1.8650 H         1 <0>         0.1277
     37 H11        -5.5180   -3.9174    0.8225 H         1 <0>         0.0878
     38 H12        -5.5307   -2.6078    2.0411 H         1 <0>         0.0936
     39 H13        -7.8527   -3.7798    1.0753 H         1 <0>         0.1055
     40 H14        -7.7876   -2.0699    1.6190 H         1 <0>         0.0990
     41 H15        -8.8122   -1.0973   -1.5428 H         1 <0>         0.3919
     42 H16         2.4645    0.4055   -0.8188 H         1 <0>         0.4159
     43 H17         1.0948   -1.8307   -3.6121 H         1 <0>         0.1728
     44 H18         1.9257   -2.9626   -5.9113 H         1 <0>         0.1340
     45 H19         5.0450   -3.1918   -5.6782 H         1 <0>         0.0947
     46 H20         3.9545   -4.2527   -6.7207 H         1 <0>         0.1079
     47 H21         3.1684   -2.2003   -7.9871 H         1 <0>         0.1079
     48 H22         4.2588   -1.1394   -6.9446 H         1 <0>         0.0949
@<TRIPOS>BOND
     1    1    2 1
     2    1   30 1
     3    1   31 1
     4    1   32 1
     5    2    3 1
     6    2    4 1
     7    2   18 1
     8    4    9 ar
     9    4    5 ar
    10    5    6 ar
    11    5   33 1
    12    6    7 ar
    13    6   34 1
    14    7    8 ar
    15    7   10 1
    16    8    9 ar
    17    8   35 1
    18    9   36 1
    19   10   15 am
    20   10   11 1
    21   11   12 1
    22   11   37 1
    23   11   38 1
    24   12   13 1
    25   12   39 1
    26   12   40 1
    27   13   14 1
    28   13   15 1
    29   13   17 1
    30   15   16 2
    31   17   41 1
    32   18   19 2
    33   18   20 am
    34   20   42 1
    35   20   21 1
    36   21   25 2
    37   21   22 1
    38   22   43 1
    39   22   23 2
    40   23   27 1
    41   23   24 1
    42   24   25 1
    43   24   26 1
    44   27   29 1
    45   27   28 1
    46   27   44 1
    47   28   29 1
    48   28   45 1
    49   28   46 1
    50   29   47 1
    51   29   48 1
@<TRIPOS>MOLECULE
CHEMBL434081
   53    57     0     0     0
SMALL
USER_CHARGES

@<TRIPOS>ATOM
      1 C1          0.0274    1.4353   -0.0084 C.3       1 <0>         0.0237
      2 O1          0.0372    0.0064   -0.0129 O.3       1 <0>        -0.3117
      3 C2          0.6381   -0.6027   -1.0673 C.ar      1 <0>         0.1522
      4 C3          1.2121    0.1632   -2.0747 C.ar      1 <0>        -0.2103
      5 C4          1.8231   -0.4504   -3.1459 C.ar      1 <0>        -0.0513
      6 C5          1.8653   -1.8456   -3.2186 C.ar      1 <0>        -0.1021
      7 C6          1.2867   -2.6120   -2.2031 C.ar      1 <0>        -0.0253
      8 C7          0.6824   -1.9900   -1.1329 C.ar      1 <0>        -0.1502
      9 C8          2.5182   -2.5072   -4.3641 C.2       1 <0>         0.2429
     10 C9          2.0181   -3.5797   -5.0900 C.2       1 <0>        -0.3328
     11 C10         3.0118   -3.8855   -6.1224 C.2       1 <0>         0.1270
     12 N1          3.9989   -3.0365   -5.9772 N.2       1 <0>        -0.2342
     13 N2          3.7217   -2.1757   -4.9106 N.pl3     1 <0>        -0.4654
     14 H1          4.2970   -1.4566   -4.6061 H         1 <0>         0.4485
     15 C11         2.4975   -5.0319   -6.9122 C.ar      1 <0>         0.0385
     16 C12         3.0302   -5.7184   -7.9961 C.ar      1 <0>        -0.1040
     17 C13         2.3357   -6.7738   -8.5635 C.ar      1 <0>        -0.0653
     18 C14         1.1090   -7.1566   -8.0606 C.ar      1 <0>        -0.1203
     19 C15         0.5561   -6.4842   -6.9758 C.ar      1 <0>         0.2218
     20 C16         1.2484   -5.4147   -6.3933 C.ar      1 <0>        -0.1868
     21 C17         0.9133   -4.5337   -5.2562 C.2       1 <0>         0.4914
     22 O2         -0.0956   -4.5887   -4.5785 O.2       1 <0>        -0.4433
     23 N3         -0.6820   -6.8723   -6.4710 N.am      1 <0>        -0.6701
     24 C18        -1.6371   -7.3282   -7.3055 C.2       1 <0>         0.5188
     25 O3         -1.3919   -7.4779   -8.4837 O.2       1 <0>        -0.4963
     26 C19        -3.0098   -7.6520   -6.7744 C.3       1 <0>         0.0363
     27 N4         -3.8608   -8.1263   -7.8738 N.3       1 <0>        -0.5198
     28 C20        -4.1133   -7.0525   -8.8456 C.3       1 <0>         0.0105
     29 C21        -4.9518   -7.6045  -10.0016 C.3       1 <0>         0.0661
     30 O4         -6.1628   -8.1606   -9.4823 O.3       1 <0>        -0.3863
     31 C22        -5.9540   -9.2098   -8.5332 C.3       1 <0>         0.0643
     32 C23        -5.1256   -8.6741   -7.3624 C.3       1 <0>         0.0173
     33 H2          1.0525    1.8057   -0.0153 H         1 <0>         0.0587
     34 H3         -0.4959    1.7979   -0.8932 H         1 <0>         0.0590
     35 H4         -0.4820    1.7924    0.8867 H         1 <0>         0.1047
     36 H5          1.1787    1.2412   -2.0179 H         1 <0>         0.1369
     37 H6          2.2687    0.1456   -3.9286 H         1 <0>         0.1290
     38 H7          1.3170   -3.6903   -2.2553 H         1 <0>         0.1380
     39 H8          0.2389   -2.5814   -0.3455 H         1 <0>         0.1412
     40 H9          3.9895   -5.4277   -8.3980 H         1 <0>         0.1386
     41 H10         2.7575   -7.3013   -9.4063 H         1 <0>         0.1430
     42 H11         0.5761   -7.9808   -8.5112 H         1 <0>         0.1551
     43 H12        -0.8571   -6.8147   -5.5187 H         1 <0>         0.4200
     44 H13        -2.9313   -8.4293   -6.0143 H         1 <0>         0.1131
     45 H14        -3.4497   -6.7569   -6.3346 H         1 <0>         0.0739
     46 H15        -4.6541   -6.2409   -8.3589 H         1 <0>         0.0404
     47 H16        -3.1642   -6.6792   -9.2303 H         1 <0>         0.1038
     48 H17        -5.1897   -6.7986  -10.6959 H         1 <0>         0.0990
     49 H18        -4.3890   -8.3796  -10.5217 H         1 <0>         0.0630
     50 H19        -6.9167   -9.5649   -8.1655 H         1 <0>         0.1005
     51 H20        -5.4203  -10.0316   -9.0107 H         1 <0>         0.0618
     52 H21        -4.9155   -9.4844   -6.6643 H         1 <0>         0.0897
     53 H22        -5.6825   -7.8884   -6.8519 H         1 <0>         0.0468
@<TRIPOS>BOND
     1    1    2 1
     2    1   33 1
     3    1   34 1
     4    1   35 1
     5    2    3 1
     6    3    8 ar
     7    3    4 ar
     8    4    5 ar
     9    4   36 1
    10    5    6 ar
    11    5   37 1
    12    6    7 ar
    13    6    9 1
    14    7    8 ar
    15    7   38 1
    16    8   39 1
    17    9   13 1
    18    9   10 2
    19   10   21 1
    20   10   11 1
    21   11   12 2
    22   11   15 1
    23   12   13 1
    24   13   14 1
    25   15   20 ar
    26   15   16 ar
    27   16   17 ar
    28   16   40 1
    29   17   18 ar
    30   17   41 1
    31   18   19 ar
    32   18   42 1
    33   19   20 ar
    34   19   23 1
    35   20   21 1
    36   21   22 2
    37   23   24 am
    38   23   43 1
    39   24   25 2
    40   24   26 1
    41   26   27 1
    42   26   44 1
    43   26   45 1
    44   27   32 1
    45   27   28 1
    46   28   29 1
    47   28   46 1
    48   28   47 1
    49   29   30 1
    50   29   48 1
    51   29   49 1
    52   30   31 1
    53   31   32 1
    54   31   50 1
    55   31   51 1
    56   32   52 1
    57   32   53 1
@<TRIPOS>MOLECULE
CHEMBL434081
   53    57     0     0     0
SMALL
USER_CHARGES

@<TRIPOS>ATOM
      1 C1         -0.0073    1.4424   -0.0281 C.3       1 <0>         0.0249
      2 O1          0.0075    0.0135   -0.0356 O.3       1 <0>        -0.3146
      3 C2          0.6163   -0.5916   -1.0886 C.ar      1 <0>         0.1447
      4 C3          1.1926    0.1774   -2.0909 C.ar      1 <0>        -0.2134
      5 C4          1.8117   -0.4335   -3.1607 C.ar      1 <0>        -0.0419
      6 C5          1.8586   -1.8253   -3.2354 C.ar      1 <0>        -0.0737
      7 C6          1.2788   -2.5947   -2.2271 C.ar      1 <0>        -0.0348
      8 C7          0.6659   -1.9776   -1.1573 C.ar      1 <0>        -0.1526
      9 C8          2.5228   -2.4854   -4.3842 C.2       1 <0>         0.2018
     10 C9          3.2580   -3.6940   -4.3395 C.2       1 <0>        -0.3139
     11 C10         3.7058   -3.9522   -5.6283 C.2       1 <0>         0.1577
     12 N1          3.2631   -2.9481   -6.4156 N.pl3     1 <0>        -0.4241
     13 N2          2.5288   -2.0543   -5.6284 N.2       1 <0>        -0.2704
     14 H1          3.4244   -2.8627   -7.3683 H         1 <0>         0.4473
     15 C11         4.4834   -5.2146   -5.6225 C.ar      1 <0>         0.0081
     16 C12         5.1370   -5.9075   -6.6308 C.ar      1 <0>        -0.1060
     17 C13         5.8042   -7.0918   -6.3451 C.ar      1 <0>        -0.0674
     18 C14         5.8255   -7.5918   -5.0623 C.ar      1 <0>        -0.1151
     19 C15         5.1737   -6.9099   -4.0322 C.ar      1 <0>         0.2269
     20 C16         4.5013   -5.7203   -4.3093 C.ar      1 <0>        -0.1872
     21 C17         3.7321   -4.7822   -3.4606 C.2       1 <0>         0.4848
     22 O2          3.5301   -4.8871   -2.2669 O.2       1 <0>        -0.4307
     23 N3          5.1952   -7.4151   -2.7363 N.am      1 <0>        -0.6705
     24 C18         5.1765   -8.7472   -2.5319 C.2       1 <0>         0.5196
     25 O3          5.2233   -9.5063   -3.4765 O.2       1 <0>        -0.4956
     26 C19         5.0976   -9.2933   -1.1296 C.3       1 <0>         0.0360
     27 N4          5.0916  -10.7616   -1.1755 N.3       1 <0>        -0.5201
     28 C20         3.8638  -11.2639   -1.8090 C.3       1 <0>         0.0105
     29 C21         3.9259  -12.7915   -1.8900 C.3       1 <0>         0.0660
     30 O4          4.1155  -13.3261   -0.5771 O.3       1 <0>        -0.3859
     31 C22         5.3024  -12.8583    0.0691 C.3       1 <0>         0.0642
     32 C23         5.2543  -11.3314    0.1699 C.3       1 <0>         0.0173
     33 H2          1.0165    1.8163   -0.0289 H         1 <0>         0.0577
     34 H3         -0.5272    1.8050   -0.9149 H         1 <0>         0.0577
     35 H4         -0.5226    1.7958    0.8650 H         1 <0>         0.1023
     36 H5          1.1556    1.2552   -2.0327 H         1 <0>         0.1339
     37 H6          2.2595    0.1651   -3.9402 H         1 <0>         0.1313
     38 H7          1.3132   -3.6728   -2.2822 H         1 <0>         0.1355
     39 H8          0.2203   -2.5728   -0.3740 H         1 <0>         0.1374
     40 H9          5.1269   -5.5252   -7.6409 H         1 <0>         0.1359
     41 H10         6.3103   -7.6253   -7.1361 H         1 <0>         0.1440
     42 H11         6.3472   -8.5138   -4.8521 H         1 <0>         0.1567
     43 H12         5.2237   -6.8087   -1.9798 H         1 <0>         0.4211
     44 H13         5.9599   -8.9512   -0.5573 H         1 <0>         0.1138
     45 H14         4.1825   -8.9410   -0.6535 H         1 <0>         0.0749
     46 H15         2.9996  -10.9657   -1.2153 H         1 <0>         0.0410
     47 H16         3.7766  -10.8495   -2.8134 H         1 <0>         0.1033
     48 H17         2.9934  -13.1721   -2.3068 H         1 <0>         0.0991
     49 H18         4.7584  -13.0886   -2.5277 H         1 <0>         0.0627
     50 H19         5.3655  -13.2873    1.0692 H         1 <0>         0.1008
     51 H20         6.1750  -13.1574   -0.5116 H         1 <0>         0.0617
     52 H21         6.1822  -10.9663    0.6101 H         1 <0>         0.0899
     53 H22         4.4124  -11.0343    0.7952 H         1 <0>         0.0474
@<TRIPOS>BOND
     1    1    2 1
     2    1   33 1
     3    1   34 1
     4    1   35 1
     5    2    3 1
     6    3    8 ar
     7    3    4 ar
     8    4    5 ar
     9    4   36 1
    10    5    6 ar
    11    5   37 1
    12    6    7 ar
    13    6    9 1
    14    7    8 ar
    15    7   38 1
    16    8   39 1
    17    9   10 1
    18    9   13 2
    19   10   21 1
    20   10   11 2
    21   11   15 1
    22   11   12 1
    23   12   14 1
    24   12   13 1
    25   15   20 ar
    26   15   16 ar
    27   16   17 ar
    28   16   40 1
    29   17   18 ar
    30   17   41 1
    31   18   19 ar
    32   18   42 1
    33   19   20 ar
    34   19   23 1
    35   20   21 1
    36   21   22 2
    37   23   24 am
    38   23   43 1
    39   24   25 2
    40   24   26 1
    41   26   27 1
    42   26   44 1
    43   26   45 1
    44   27   32 1
    45   27   28 1
    46   28   29 1
    47   28   46 1
    48   28   47 1
    49   29   30 1
    50   29   48 1
    51   29   49 1
    52   30   31 1
    53   31   32 1
    54   31   50 1
    55   31   51 1
    56   32   52 1
    57   32   53 1
@<TRIPOS>MOLECULE
CHEMBL526110
   36    39     0     0     0
SMALL
USER_CHARGES

@<TRIPOS>ATOM
      1 C1          0.1172    1.1548   -0.7719 C.ar      1 <0>        -0.0944
      2 C2          1.3027    1.8635   -0.7708 C.ar      1 <0>        -0.0654
      3 C3          2.3815    1.4080   -0.0241 C.ar      1 <0>         0.1770
      4 C4          2.2641    0.2405    0.7194 C.ar      1 <0>        -0.0927
      5 C5          1.0761   -0.4632    0.7139 C.ar      1 <0>        -0.0259
      6 C6          0.0037   -0.0069   -0.0308 C.ar      1 <0>        -0.0737
      7 N1          0.9501   -1.7074    1.5059 N.pl3     1 <0>         0.0334
      8 O1          1.8871   -2.1069    2.1571 O.2       1 <0>        -0.1589
      9 O2         -0.0897   -2.3240    1.5016 O.3       1 <0>        -0.1530
     10 N2          3.5832    2.1228   -0.0212 N.pl3     1 <0>        -0.6378
     11 C7          3.5675    3.5046   -0.1187 C.ar      1 <0>         0.5668
     12 N3          2.4045    4.1401   -0.0972 N.ar      1 <0>        -0.5702
     13 C8          2.3460    5.4605   -0.1874 C.ar      1 <0>         0.1967
     14 C9          3.5174    6.1831   -0.3056 C.ar      1 <0>        -0.2688
     15 C10         4.7320    5.4859   -0.3257 C.ar      1 <0>         0.3140
     16 N4          4.7144    4.1563   -0.2254 N.ar      1 <0>        -0.5682
     17 C11         6.0123    6.2122   -0.4509 C.2       1 <0>        -0.2019
     18 C12         6.1755    7.5971   -0.5527 C.2       1 <0>         0.1005
     19 N5          7.4566    7.8679   -0.6477 N.2       1 <0>        -0.2489
     20 N6          8.1872    6.6753   -0.6123 N.pl3     1 <0>        -0.1741
     21 C13         7.2947    5.6426   -0.4839 C.2       1 <0>         0.1004
     22 C14         7.7652    4.3250   -0.4175 C.2       1 <0>        -0.0281
     23 C15         9.1094    4.0965   -0.4788 C.2       1 <0>        -0.1544
     24 C16         9.9958    5.1700   -0.6061 C.2       1 <0>         0.1197
     25 N7          9.5583    6.4007   -0.6765 N.2       1 <0>        -0.2119
     26 H1         -0.7236    1.5109   -1.3488 H         1 <0>         0.1517
     27 H2          1.3908    2.7707   -1.3503 H         1 <0>         0.1532
     28 H3          3.1013   -0.1166    1.3009 H         1 <0>         0.1547
     29 H4         -0.9245   -0.5590   -0.0331 H         1 <0>         0.1547
     30 H5          4.4278    1.6511    0.0492 H         1 <0>         0.4274
     31 H6          1.3922    5.9668   -0.1691 H         1 <0>         0.1755
     32 H7          3.4971    7.2602   -0.3812 H         1 <0>         0.1506
     33 H8          5.3779    8.3252   -0.5532 H         1 <0>         0.2099
     34 H9          7.0738    3.5012   -0.3189 H         1 <0>         0.1698
     35 H10         9.4883    3.0864   -0.4286 H         1 <0>         0.1620
     36 H11        11.0579    4.9798   -0.6535 H         1 <0>         0.2102
@<TRIPOS>BOND
     1    1    6 ar
     2    1    2 ar
     3    1   26 1
     4    2    3 ar
     5    2   27 1
     6    3    4 ar
     7    3   10 1
     8    4    5 ar
     9    4   28 1
    10    5    6 ar
    11    5    7 1
    12    6   29 1
    13    7    8 2
    14    7    9 1
    15   10   11 1
    16   10   30 1
    17   11   16 ar
    18   11   12 ar
    19   12   13 ar
    20   13   14 ar
    21   13   31 1
    22   14   15 ar
    23   14   32 1
    24   15   16 ar
    25   15   17 1
    26   17   21 2
    27   17   18 1
    28   18   19 2
    29   18   33 1
    30   19   20 1
    31   20   25 1
    32   20   21 1
    33   21   22 1
    34   22   23 2
    35   22   34 1
    36   23   24 1
    37   23   35 1
    38   24   25 2
    39   24   36 1
@<TRIPOS>MOLECULE
CHEMBL178179
   71    75     0     0     0
SMALL
USER_CHARGES

@<TRIPOS>ATOM
      1 C1          7.2238    3.6426    1.5390 C.3       1 <0>         0.0810
      2 N1          6.6782    4.0460    0.2407 N.pl3     1 <0>        -1.0064
      3 C2          5.3989    4.7567    0.1726 C.3       1 <0>         0.0880
      4 S1          7.5074    3.6987   -1.1500 S.o2      1 <0>         2.6949
      5 O1          7.0805    4.6416   -2.1237 O.2       1 <0>        -0.9513
      6 O2          8.8718    3.5480   -0.7825 O.2       1 <0>        -0.9540
      7 C3          6.9576    2.1189   -1.7038 C.ar      1 <0>        -0.7075
      8 C4          7.6007    0.9739   -1.2706 C.ar      1 <0>         0.0223
      9 C5          7.1723   -0.2659   -1.7027 C.ar      1 <0>        -0.1748
     10 C6          6.0939   -0.3620   -2.5729 C.ar      1 <0>         0.2444
     11 C7          5.4498    0.7903   -3.0057 C.ar      1 <0>        -0.1834
     12 C8          5.8803    2.0266   -2.5660 C.ar      1 <0>         0.0206
     13 N2          5.6580   -1.6151   -3.0125 N.pl3     1 <0>        -0.6738
     14 C9          6.3840   -2.7468   -2.7006 C.2       1 <0>         0.4631
     15 C10         5.8038   -3.7732   -2.0138 C.2       1 <0>        -0.2761
     16 C11         6.5646   -4.9133   -1.7091 C.2       1 <0>         0.4679
     17 N3          7.8298   -4.9880   -2.0848 N.2       1 <0>        -0.5407
     18 C12         8.4082   -3.9838   -2.7602 C.2       1 <0>         0.3115
     19 N4          7.6975   -2.8575   -3.0817 N.pl3     1 <0>        -0.3489
     20 N5          8.5528   -2.0005   -3.7835 N.2       1 <0>        -0.3019
     21 C13         9.7291   -2.5723   -3.8940 C.2       1 <0>         0.1066
     22 C14         9.6904   -3.8086   -3.2621 C.2       1 <0>        -0.2333
     23 C15        10.8294   -4.7897   -3.1560 C.3       1 <0>         0.0040
     24 C16        12.0355   -4.1260   -2.4599 C.3       1 <0>        -0.1167
     25 C17        13.2669   -4.7046   -3.2001 C.3       1 <0>        -0.1260
     26 C18        12.7819   -4.7718   -4.6695 C.3       1 <0>        -0.1268
     27 C19        11.3040   -5.2004   -4.5609 C.3       1 <0>        -0.1162
     28 N6          5.9880   -5.9625   -1.0125 N.pl3     1 <0>        -0.7036
     29 C20         6.7799   -7.1530   -0.6934 C.3       1 <0>         0.1518
     30 C21         6.7508   -8.1180   -1.8804 C.3       1 <0>        -0.1297
     31 C22         7.5779   -9.3613   -1.5472 C.3       1 <0>        -0.1386
     32 C23         6.9887  -10.0506   -0.3149 C.3       1 <0>         0.0237
     33 C24         7.0178   -9.0856    0.8720 C.3       1 <0>        -0.1369
     34 C25         6.1907   -7.8423    0.5389 C.3       1 <0>        -0.1286
     35 N7          7.7828  -11.2444    0.0050 N.4       1 <0>        -0.6370
     36 H1          6.8642    2.6447    1.7901 H         1 <0>         0.0540
     37 H2          8.3126    3.6344    1.4888 H         1 <0>         0.0843
     38 H3          6.9006    4.3484    2.3041 H         1 <0>         0.0804
     39 H4          5.0055    4.8939    1.1798 H         1 <0>         0.0834
     40 H5          5.5483    5.7299   -0.2949 H         1 <0>         0.0711
     41 H6          4.6910    4.1749   -0.4178 H         1 <0>         0.0592
     42 H7          8.4391    1.0492   -0.5941 H         1 <0>         0.1413
     43 H8          7.6755   -1.1598   -1.3646 H         1 <0>         0.1191
     44 H9          4.6110    0.7191   -3.6823 H         1 <0>         0.1378
     45 H10         5.3777    2.9226   -2.8991 H         1 <0>         0.1466
     46 H11         4.8453   -1.6895   -3.5368 H         1 <0>         0.4289
     47 H12         4.7701   -3.7093   -1.7075 H         1 <0>         0.1639
     48 H13        10.5902   -2.1463   -4.3873 H         1 <0>         0.1934
     49 H14        10.5126   -5.6701   -2.5967 H         1 <0>         0.0753
     50 H15        11.9946   -3.0430   -2.5762 H         1 <0>         0.0679
     51 H16        12.0631   -4.3965   -1.4043 H         1 <0>         0.0618
     52 H17        14.1231   -4.0366   -3.1061 H         1 <0>         0.0674
     53 H18        13.5092   -5.6998   -2.8273 H         1 <0>         0.0641
     54 H19        12.8616   -3.7932   -5.1427 H         1 <0>         0.0665
     55 H20        13.3542   -5.5137   -5.2266 H         1 <0>         0.0641
     56 H21        11.2183   -6.2801   -4.6832 H         1 <0>         0.0593
     57 H22        10.7105   -4.6900   -5.3195 H         1 <0>         0.0638
     58 H23         5.0598   -5.9090   -0.7359 H         1 <0>         0.4150
     59 H24         7.8096   -6.8602   -0.4884 H         1 <0>         0.1005
     60 H25         5.7211   -8.4108   -2.0854 H         1 <0>         0.0747
     61 H26         7.1706   -7.6269   -2.7583 H         1 <0>         0.0926
     62 H27         7.5572  -10.0488   -2.3928 H         1 <0>         0.0914
     63 H28         8.6076   -9.0685   -1.3421 H         1 <0>         0.0925
     64 H29         5.9590  -10.3435   -0.5199 H         1 <0>         0.1426
     65 H30         6.5980   -9.5767    1.7500 H         1 <0>         0.0944
     66 H31         8.0475   -8.7928    1.0771 H         1 <0>         0.0928
     67 H32         6.2114   -7.1548    1.3844 H         1 <0>         0.0931
     68 H33         5.1610   -8.1351    0.3338 H         1 <0>         0.0813
     69 H34         8.7360  -10.9733    0.1948 H         1 <0>         0.4342
     70 H35         7.3942  -11.6990    0.8177 H         1 <0>         0.4365
     71 H36         7.7636  -11.8808   -0.7777 H         1 <0>         0.4372
@<TRIPOS>BOND
     1    1    2 1
     2    1   36 1
     3    1   37 1
     4    1   38 1
     5    2    3 1
     6    2    4 1
     7    3   39 1
     8    3   40 1
     9    3   41 1
    10    4    5 2
    11    4    6 2
    12    4    7 1
    13    7   12 ar
    14    7    8 ar
    15    8    9 ar
    16    8   42 1
    17    9   10 ar
    18    9   43 1
    19   10   11 ar
    20   10   13 1
    21   11   12 ar
    22   11   44 1
    23   12   45 1
    24   13   14 1
    25   13   46 1
    26   14   19 1
    27   14   15 2
    28   15   16 1
    29   15   47 1
    30   16   17 2
    31   16   28 1
    32   17   18 1
    33   18   22 2
    34   18   19 1
    35   19   20 1
    36   20   21 2
    37   21   22 1
    38   21   48 1
    39   22   23 1
    40   23   27 1
    41   23   24 1
    42   23   49 1
    43   24   25 1
    44   24   50 1
    45   24   51 1
    46   25   26 1
    47   25   52 1
    48   25   53 1
    49   26   27 1
    50   26   54 1
    51   26   55 1
    52   27   56 1
    53   27   57 1
    54   28   29 1
    55   28   58 1
    56   29   34 1
    57   29   30 1
    58   29   59 1
    59   30   31 1
    60   30   60 1
    61   30   61 1
    62   31   32 1
    63   31   62 1
    64   31   63 1
    65   32   33 1
    66   32   35 1
    67   32   64 1
    68   33   34 1
    69   33   65 1
    70   33   66 1
    71   34   67 1
    72   34   68 1
    73   35   69 1
    74   35   70 1
    75   35   71 1
@<TRIPOS>MOLECULE
CHEMBL363607
   43    45     0     0     0
SMALL
USER_CHARGES

@<TRIPOS>ATOM
      1 C1         -2.5493   -0.6877   -1.2091 C.3       1 <0>        -0.1162
      2 C2         -1.2297   -1.0543   -0.5804 C.ar      1 <0>        -0.1245
      3 C3         -0.0467   -0.6841   -1.1945 C.ar      1 <0>        -0.0377
      4 C4          1.1702   -1.0154   -0.6270 C.ar      1 <0>        -0.1547
      5 C5          1.2143   -1.7206    0.5610 C.ar      1 <0>         0.1683
      6 C6          0.0223   -2.0991    1.1899 C.ar      1 <0>        -0.1949
      7 C7         -1.2051   -1.7543    0.6107 C.ar      1 <0>         0.1704
      8 F1         -2.3616   -2.1097    1.2119 F         1 <0>        -0.1195
      9 C8          0.0589   -2.8509    2.4565 C.2       1 <0>         0.6194
     10 O1          0.1615   -2.2581    3.5123 O.2       1 <0>        -0.4414
     11 N1         -0.0213   -4.1962    2.4442 N.am      1 <0>        -0.3783
     12 C9         -0.1008   -5.0126    3.5185 C.2       1 <0>         0.3573
     13 N2         -0.1624   -6.2449    3.0885 N.2       1 <0>        -0.5357
     14 C10        -0.1252   -6.2612    1.7502 C.2       1 <0>         0.4900
     15 N3         -0.0450   -5.0274    1.3123 N.2       1 <0>        -0.3322
     16 N4         -0.1702   -7.4031    0.9519 N.pl3     1 <0>        -0.6228
     17 C11        -0.3799   -8.6555    1.5352 C.ar      1 <0>         0.2346
     18 C12        -1.0521   -8.7554    2.7469 C.ar      1 <0>        -0.1595
     19 C13        -1.2576   -9.9946    3.3206 C.ar      1 <0>         0.0114
     20 C14        -0.7952  -11.1354    2.6903 C.ar      1 <0>        -0.7026
     21 C15        -0.1254  -11.0396    1.4843 C.ar      1 <0>         0.0120
     22 C16         0.0782   -9.8040    0.9020 C.ar      1 <0>        -0.1771
     23 S1         -1.0597  -12.7145    3.4259 S.o2      1 <0>         2.7034
     24 O2         -0.0541  -13.5762    2.9104 O.2       1 <0>        -0.9651
     25 O3         -1.2302  -12.4904    4.8187 O.2       1 <0>        -0.9640
     26 N5         -2.5073  -13.2833    2.8573 N.pl3     1 <0>        -1.2508
     27 C17        -0.1150   -4.5773    4.9612 C.3       1 <0>        -0.0958
     28 F2          2.4041   -2.0440    1.1132 F         1 <0>        -0.1205
     29 H1         -2.8695    0.2866   -0.8400 H         1 <0>         0.0821
     30 H2         -2.4367   -0.6468   -2.2925 H         1 <0>         0.0811
     31 H3         -3.2963   -1.4379   -0.9496 H         1 <0>         0.0741
     32 H4         -0.0735   -0.1332   -2.1231 H         1 <0>         0.1544
     33 H5          2.0888   -0.7225   -1.1136 H         1 <0>         0.1557
     34 H6         -0.0558   -7.3284   -0.0084 H         1 <0>         0.4324
     35 H7         -1.4131   -7.8648    3.2399 H         1 <0>         0.1540
     36 H8         -1.7798  -10.0729    4.2628 H         1 <0>         0.1469
     37 H9          0.2347  -11.9324    0.9949 H         1 <0>         0.1483
     38 H10         0.5968   -9.7303   -0.0425 H         1 <0>         0.1388
     39 H11        -3.0266  -12.7510    2.2344 H         1 <0>         0.4165
     40 H12        -2.8360  -14.1486    3.1471 H         1 <0>         0.4208
     41 H13        -1.1439   -4.4104    5.2802 H         1 <0>         0.1060
     42 H14         0.3357   -5.3537    5.5794 H         1 <0>         0.1076
     43 H15         0.4528   -3.6530    5.0674 H         1 <0>         0.1080
@<TRIPOS>BOND
     1    1    2 1
     2    1   29 1
     3    1   30 1
     4    1   31 1
     5    2    7 ar
     6    2    3 ar
     7    3    4 ar
     8    3   32 1
     9    4    5 ar
    10    4   33 1
    11    5    6 ar
    12    5   28 1
    13    6    7 ar
    14    6    9 1
    15    7    8 1
    16    9   10 2
    17    9   11 am
    18   11   15 1
    19   11   12 1
    20   12   13 2
    21   12   27 1
    22   13   14 1
    23   14   15 2
    24   14   16 1
    25   16   17 1
    26   16   34 1
    27   17   22 ar
    28   17   18 ar
    29   18   19 ar
    30   18   35 1
    31   19   20 ar
    32   19   36 1
    33   20   21 ar
    34   20   23 1
    35   21   22 ar
    36   21   37 1
    37   22   38 1
    38   23   24 2
    39   23   25 2
    40   23   26 1
    41   26   39 1
    42   26   40 1
    43   27   41 1
    44   27   42 1
    45   27   43 1
@<TRIPOS>MOLECULE
CHEMBL251796
   60    63     0     0     0
SMALL
USER_CHARGES

@<TRIPOS>ATOM
      1 C1         -0.9421    0.3924    0.6706 C.3       1 <0>        -0.1404
      2 C2         -0.6264   -1.0707    0.8459 C.ar      1 <0>         0.0030
      3 C3         -0.8165   -1.9481   -0.2028 C.ar      1 <0>        -0.1281
      4 C4         -0.5291   -3.2907   -0.0475 C.ar      1 <0>        -0.0302
      5 C5         -0.0462   -3.7673    1.1670 C.ar      1 <0>        -0.1685
      6 C6          0.1485   -2.8933    2.2265 C.ar      1 <0>        -0.0301
      7 C7         -0.1364   -1.5374    2.0670 C.ar      1 <0>        -0.1478
      8 C8          0.0741   -0.5982    3.1895 C.2       1 <0>         0.5725
      9 O1         -0.8413    0.1019    3.5759 O.2       1 <0>        -0.5089
     10 N1          1.2809   -0.5185    3.7842 N.am      1 <0>        -0.6136
     11 C9          2.3719   -1.4191    3.3861 C.3       1 <0>         0.0829
     12 C10         3.5867   -0.5716    2.9885 C.3       1 <0>         0.0786
     13 N2          3.8354    0.4179    4.0463 N.am      1 <0>        -0.5863
     14 C11         2.7445    1.3186    4.4443 C.3       1 <0>         0.0954
     15 C12         1.5313    0.4748    4.8380 C.3       1 <0>         0.0973
     16 C13         5.0423    0.4977    4.6409 C.2       1 <0>         0.5018
     17 O2          5.2105    1.2562    5.5722 O.2       1 <0>        -0.5218
     18 C14         6.1827   -0.3557    4.1487 C.3       1 <0>         0.0045
     19 H1          5.8234   -1.3668    3.9569 H         1 <0>         0.1654
     20 C15         6.7444    0.2398    2.8562 C.3       1 <0>        -0.1823
     21 N3          7.2392   -0.3968    5.1686 N.4       1 <0>        -0.6209
     22 S1          0.3174   -5.4806    1.3595 S.3       1 <0>         0.1019
     23 C16        -1.2315   -6.1987    1.7954 C.2       1 <0>        -0.2536
     24 C17        -1.5258   -7.4785    2.1546 C.2       1 <0>         0.0981
     25 N4         -2.7722   -7.8049    2.4450 N.2       1 <0>        -0.4924
     26 C18        -3.7444   -6.9124    2.3943 C.2       1 <0>         0.3566
     27 S2         -2.8507   -5.4465    1.8959 S.3       1 <0>         0.0190
     28 N5         -5.0994   -7.0696    2.6615 N.pl3     1 <0>        -0.5961
     29 C19        -5.5757   -8.2815    3.1508 C.ar      1 <0>         0.3787
     30 C20        -6.9447   -8.4699    3.3108 C.ar      1 <0>        -0.1925
     31 C21        -7.4053   -9.6800    3.7978 C.ar      1 <0>        -0.0332
     32 C22        -6.4780  -10.6651    4.1099 C.ar      1 <0>        -0.1700
     33 C23        -5.1325  -10.4102    3.9264 C.ar      1 <0>         0.1619
     34 N6         -4.7222   -9.2473    3.4549 N.ar      1 <0>        -0.4592
     35 Br1        -3.8631  -11.7466    4.3490 Br        1 <0>         0.0025
     36 H2         -0.0324    0.9311    0.4052 H         1 <0>         0.0769
     37 H3         -1.6800    0.5124   -0.1226 H         1 <0>         0.0795
     38 H4         -1.3421    0.7920    1.6025 H         1 <0>         0.0917
     39 H5         -1.1915   -1.5840   -1.1478 H         1 <0>         0.1420
     40 H6         -0.6802   -3.9723   -0.8715 H         1 <0>         0.1419
     41 H7          0.5233   -3.2608    3.1704 H         1 <0>         0.1378
     42 H8          2.6354   -2.0665    4.2225 H         1 <0>         0.0828
     43 H9          2.0548   -2.0249    2.5372 H         1 <0>         0.1138
     44 H10         4.4600   -1.2141    2.8759 H         1 <0>         0.0990
     45 H11         3.3831   -0.0588    2.0484 H         1 <0>         0.0962
     46 H12         3.0615    1.9244    5.2932 H         1 <0>         0.1159
     47 H13         2.4809    1.9659    3.6079 H         1 <0>         0.0892
     48 H14         0.6593    1.1194    4.9478 H         1 <0>         0.1167
     49 H15         1.7336   -0.0346    5.7802 H         1 <0>         0.0793
     50 H16         5.9401    0.3548    2.1295 H         1 <0>         0.1105
     51 H17         7.1858    1.2139    3.0667 H         1 <0>         0.0927
     52 H18         7.5074   -0.4251    2.4514 H         1 <0>         0.1026
     53 H19         6.8687   -0.7895    6.0210 H         1 <0>         0.4414
     54 H20         8.0027   -0.9682    4.8390 H         1 <0>         0.4440
     55 H21        -0.7446   -8.2228    2.2016 H         1 <0>         0.1713
     56 H22        -5.7128   -6.3343    2.5069 H         1 <0>         0.4395
     57 H23        -7.6387   -7.6818    3.0584 H         1 <0>         0.1459
     58 H24        -8.4626   -9.8544    3.9326 H         1 <0>         0.1531
     59 H25        -6.8051  -11.6206    4.4925 H         1 <0>         0.1496
     60 H26         7.5718    0.5391    5.3462 H         1 <0>         0.4425
@<TRIPOS>BOND
     1    1    2 1
     2    1   36 1
     3    1   37 1
     4    1   38 1
     5    2    7 ar
     6    2    3 ar
     7    3    4 ar
     8    3   39 1
     9    4    5 ar
    10    4   40 1
    11    5    6 ar
    12    5   22 1
    13    6    7 ar
    14    6   41 1
    15    7    8 1
    16    8    9 2
    17    8   10 am
    18   10   15 1
    19   10   11 1
    20   11   12 1
    21   11   42 1
    22   11   43 1
    23   12   13 1
    24   12   44 1
    25   12   45 1
    26   13   14 1
    27   13   16 am
    28   14   15 1
    29   14   46 1
    30   14   47 1
    31   15   48 1
    32   15   49 1
    33   16   17 2
    34   16   18 1
    35   18   19 1
    36   18   20 1
    37   18   21 1
    38   20   50 1
    39   20   51 1
    40   20   52 1
    41   21   53 1
    42   21   54 1
    43   21   60 1
    44   22   23 1
    45   23   27 1
    46   23   24 2
    47   24   25 1
    48   24   55 1
    49   25   26 2
    50   26   27 1
    51   26   28 1
    52   28   29 1
    53   28   56 1
    54   29   34 ar
    55   29   30 ar
    56   30   31 ar
    57   30   57 1
    58   31   32 ar
    59   31   58 1
    60   32   33 ar
    61   32   59 1
    62   33   34 ar
    63   33   35 1
@<TRIPOS>MOLECULE
CHEMBL251796
   59    62     0     0     0
SMALL
USER_CHARGES

@<TRIPOS>ATOM
      1 C1         -0.4153    1.4310    0.0259 C.3       1 <0>        -0.1389
      2 C2         -0.1936   -0.0596    0.0167 C.ar      1 <0>         0.0024
      3 C3         -0.3149   -0.7680   -1.1620 C.ar      1 <0>        -0.1310
      4 C4         -0.1132   -2.1348   -1.1762 C.ar      1 <0>        -0.0330
      5 C5          0.2136   -2.8064   -0.0026 C.ar      1 <0>        -0.1717
      6 C6          0.3382   -2.1032    1.1867 C.ar      1 <0>        -0.0259
      7 C7          0.1400   -0.7228    1.1989 C.ar      1 <0>        -0.1419
      8 C8          0.2769    0.0350    2.4612 C.2       1 <0>         0.5704
      9 O1         -0.6372    0.7342    2.8525 O.2       1 <0>        -0.5224
     10 N1          1.4152   -0.0494    3.1778 N.am      1 <0>        -0.6062
     11 C9          2.4974   -0.9513    2.7593 C.3       1 <0>         0.0856
     12 C10         3.7878   -0.1349    2.6159 C.3       1 <0>         0.0952
     13 N2          3.9693    0.6736    3.8297 N.am      1 <0>        -0.6110
     14 C11         2.8871    1.5755    4.2483 C.3       1 <0>         0.0890
     15 C12         1.5989    0.7633    4.3885 C.3       1 <0>         0.0962
     16 C13         5.1076    0.5892    4.5463 C.2       1 <0>         0.4836
     17 O2          5.9936   -0.1590    4.1913 O.2       1 <0>        -0.5395
     18 C14         5.2794    1.4245    5.7888 C.3       1 <0>         0.0711
     19 H1          4.8692    2.4196    5.6173 H         1 <0>         0.1046
     20 C15         4.5416    0.7626    6.9544 C.3       1 <0>        -0.1434
     21 N3          6.7083    1.5330    6.1122 N.3       1 <0>        -0.8193
     22 S1          0.4685   -4.5497   -0.0266 S.3       1 <0>         0.1079
     23 C16        -1.1519   -5.2199    0.1462 C.2       1 <0>        -0.2431
     24 C17        -1.5464   -6.5156    0.2849 C.2       1 <0>         0.0890
     25 N4         -2.8314   -6.7979    0.4012 N.2       1 <0>        -0.4892
     26 C18        -3.7467   -5.8460    0.3857 C.2       1 <0>         0.3458
     27 S2         -2.7329   -4.3859    0.1960 S.3       1 <0>         0.0218
     28 N5         -5.1286   -5.9511    0.4932 N.pl3     1 <0>        -0.5967
     29 C19        -5.7143   -7.1859    0.7520 C.ar      1 <0>         0.3827
     30 C20        -7.1002   -7.3060    0.7473 C.ar      1 <0>        -0.1954
     31 C21        -7.6699   -8.5398    1.0058 C.ar      1 <0>        -0.0337
     32 C22        -6.8315   -9.6165    1.2613 C.ar      1 <0>        -0.1739
     33 C23        -5.4630   -9.4261    1.2501 C.ar      1 <0>         0.1634
     34 N6         -4.9473   -8.2377    0.9952 N.ar      1 <0>        -0.4589
     35 Br1        -4.3141  -10.8874    1.5971 Br        1 <0>         0.0011
     36 H2          0.5432    1.9415   -0.0678 H         1 <0>         0.0775
     37 H3         -1.0577    1.7080   -0.8100 H         1 <0>         0.0764
     38 H4         -0.8918    1.7217    0.9622 H         1 <0>         0.0924
     39 H5         -0.5688   -0.2520   -2.0762 H         1 <0>         0.1400
     40 H6         -0.2099   -2.6836   -2.1014 H         1 <0>         0.1398
     41 H7          0.5919   -2.6223    2.0992 H         1 <0>         0.1391
     42 H8          2.6376   -1.7281    3.5110 H         1 <0>         0.0811
     43 H9          2.2444   -1.4067    1.8018 H         1 <0>         0.1032
     44 H10         4.6358   -0.8091    2.4954 H         1 <0>         0.1072
     45 H11         3.7118    0.5201    1.7480 H         1 <0>         0.0740
     46 H12         3.1401    2.0309    5.2057 H         1 <0>         0.1048
     47 H13         2.7469    2.3523    3.4966 H         1 <0>         0.0787
     48 H14         0.7526    1.4400    4.5067 H         1 <0>         0.1104
     49 H15         1.6736    0.1114    5.2589 H         1 <0>         0.0778
     50 H16         4.9519   -0.2326    7.1259 H         1 <0>         0.0628
     51 H17         4.6659    1.3667    7.8531 H         1 <0>         0.0808
     52 H18         3.4814    0.6821    6.7145 H         1 <0>         0.0651
     53 H19         7.1122    0.6229    6.2757 H         1 <0>         0.3524
     54 H20         7.2071    2.0247    5.3858 H         1 <0>         0.3468
     55 H21        -0.8128   -7.3080    0.2995 H         1 <0>         0.1716
     56 H22        -5.6846   -5.1632    0.3877 H         1 <0>         0.4388
     57 H23        -7.7232   -6.4473    0.5450 H         1 <0>         0.1450
     58 H24        -8.7429   -8.6626    1.0091 H         1 <0>         0.1514
     59 H25        -7.2447  -10.5929    1.4670 H         1 <0>         0.1481
@<TRIPOS>BOND
     1    1    2 1
     2    1   36 1
     3    1   37 1
     4    1   38 1
     5    2    7 ar
     6    2    3 ar
     7    3    4 ar
     8    3   39 1
     9    4    5 ar
    10    4   40 1
    11    5    6 ar
    12    5   22 1
    13    6    7 ar
    14    6   41 1
    15    7    8 1
    16    8    9 2
    17    8   10 am
    18   10   15 1
    19   10   11 1
    20   11   12 1
    21   11   42 1
    22   11   43 1
    23   12   13 1
    24   12   44 1
    25   12   45 1
    26   13   14 1
    27   13   16 am
    28   14   15 1
    29   14   46 1
    30   14   47 1
    31   15   48 1
    32   15   49 1
    33   16   17 2
    34   16   18 1
    35   18   19 1
    36   18   20 1
    37   18   21 1
    38   20   50 1
    39   20   51 1
    40   20   52 1
    41   21   53 1
    42   21   54 1
    43   22   23 1
    44   23   27 1
    45   23   24 2
    46   24   25 1
    47   24   55 1
    48   25   26 2
    49   26   27 1
    50   26   28 1
    51   28   29 1
    52   28   56 1
    53   29   34 ar
    54   29   30 ar
    55   30   31 ar
    56   30   57 1
    57   31   32 ar
    58   31   58 1
    59   32   33 ar
    60   32   59 1
    61   33   34 ar
    62   33   35 1
@<TRIPOS>MOLECULE
CHEMBL359738
   47    51     0     0     0
SMALL
USER_CHARGES

@<TRIPOS>ATOM
      1 C1         -0.0169    1.3847   -0.0093 C.ar      1 <0>        -0.0395
      2 C2          1.1687    2.0911   -0.0169 C.ar      1 <0>        -0.1848
      3 C3          2.3813    1.4129   -0.0130 C.ar      1 <0>         0.2356
      4 C4          2.4000    0.0237   -0.0016 C.ar      1 <0>        -0.1865
      5 C5          1.2142   -0.6823    0.0060 C.ar      1 <0>        -0.0615
      6 C6          0.0021   -0.0041    0.0021 C.ar      1 <0>         0.0593
      7 N1         -1.2018   -0.7210    0.0097 N.pl3     1 <0>        -0.2001
      8 C7         -1.4572   -1.7958    0.7734 C.2       1 <0>         0.0969
      9 C8         -2.7583   -2.1852    0.5180 C.2       1 <0>        -0.1418
     10 C9         -3.2179   -1.2990   -0.4627 C.2       1 <0>        -0.0018
     11 N2         -2.2364   -0.4453   -0.7126 N.2       1 <0>        -0.2681
     12 C10        -4.5514   -1.3101   -1.0972 C.2       1 <0>         0.6118
     13 O1         -5.3708   -2.1486   -0.7752 O.2       1 <0>        -0.5304
     14 N3         -4.8600   -0.3909   -2.0333 N.am      1 <0>        -0.8423
     15 C11        -3.4466   -3.3120    1.2277 C.3       1 <0>        -0.0404
     16 C12        -2.4657   -4.4137    1.6330 C.3       1 <0>        -0.0398
     17 C13        -1.1895   -3.8342    2.1839 C.2       1 <0>         0.1087
     18 C14        -0.6757   -2.5728    1.7539 C.2       1 <0>        -0.1807
     19 C15         0.4879   -2.3547    2.3914 C.2       1 <0>         0.0893
     20 N4          0.7005   -3.4086    3.2142 N.pl3     1 <0>        -0.4810
     21 H1          1.4602   -3.5223    3.8065 H         1 <0>         0.4448
     22 N5         -0.3666   -4.3084    3.0644 N.2       1 <0>        -0.2718
     23 N6          3.5820    2.1279   -0.0212 N.pl3     1 <0>        -0.6268
     24 C16         4.8757    1.4374    0.1014 C.3       1 <0>         0.0828
     25 C17         5.7913    1.9220   -1.0285 C.3       1 <0>         0.0447
     26 O2          5.8313    3.3511   -1.0219 O.3       1 <0>        -0.3774
     27 C18         4.5683    3.9730   -1.2706 C.3       1 <0>         0.0451
     28 C19         3.5903    3.5930   -0.1587 C.3       1 <0>         0.0831
     29 H2         -0.9595    1.9119   -0.0078 H         1 <0>         0.1363
     30 H3          1.1540    3.1709   -0.0262 H         1 <0>         0.1357
     31 H4          3.3425   -0.5037    0.0011 H         1 <0>         0.1358
     32 H5          1.2287   -1.7621    0.0146 H         1 <0>         0.1342
     33 H6         -4.2062    0.2781   -2.2902 H         1 <0>         0.4075
     34 H7         -5.7358   -0.3982   -2.4500 H         1 <0>         0.4068
     35 H8         -3.9334   -2.9235    2.1222 H         1 <0>         0.0789
     36 H9         -4.2044   -3.7363    0.5689 H         1 <0>         0.1014
     37 H10        -2.9294   -5.0426    2.3930 H         1 <0>         0.0933
     38 H11        -2.2331   -5.0235    0.7600 H         1 <0>         0.0908
     39 H12         1.1334   -1.4975    2.2696 H         1 <0>         0.1806
     40 H13         5.3269    1.6717    1.0656 H         1 <0>         0.0759
     41 H14         4.7267    0.3610    0.0171 H         1 <0>         0.0944
     42 H15         6.7966    1.5290   -0.8764 H         1 <0>         0.1075
     43 H16         5.4042    1.5731   -1.9858 H         1 <0>         0.0575
     44 H17         4.6936    5.0556   -1.2926 H         1 <0>         0.1083
     45 H18         4.1767    3.6315   -2.2288 H         1 <0>         0.0571
     46 H19         2.5905    3.9432   -0.4153 H         1 <0>         0.0950
     47 H20         3.9099    4.0479    0.7788 H         1 <0>         0.0755
@<TRIPOS>BOND
     1    1    6 ar
     2    1    2 ar
     3    1   29 1
     4    2    3 ar
     5    2   30 1
     6    3    4 ar
     7    3   23 1
     8    4    5 ar
     9    4   31 1
    10    5    6 ar
    11    5   32 1
    12    6    7 1
    13    7   11 1
    14    7    8 1
    15    8   18 1
    16    8    9 2
    17    9   10 1
    18    9   15 1
    19   10   11 2
    20   10   12 1
    21   12   13 2
    22   12   14 am
    23   14   33 1
    24   14   34 1
    25   15   16 1
    26   15   35 1
    27   15   36 1
    28   16   17 1
    29   16   37 1
    30   16   38 1
    31   17   22 2
    32   17   18 1
    33   18   19 2
    34   19   20 1
    35   19   39 1
    36   20   21 1
    37   20   22 1
    38   23   28 1
    39   23   24 1
    40   24   25 1
    41   24   40 1
    42   24   41 1
    43   25   26 1
    44   25   42 1
    45   25   43 1
    46   26   27 1
    47   27   28 1
    48   27   44 1
    49   27   45 1
    50   28   46 1
    51   28   47 1
@<TRIPOS>MOLECULE
CHEMBL359738
   47    51     0     0     0
SMALL
USER_CHARGES

@<TRIPOS>ATOM
      1 C1         -0.0169    1.3847   -0.0105 C.ar      1 <0>        -0.0563
      2 C2          1.1687    2.0911   -0.0181 C.ar      1 <0>        -0.1845
      3 C3          2.3813    1.4129   -0.0130 C.ar      1 <0>         0.2362
      4 C4          2.4000    0.0237   -0.0003 C.ar      1 <0>        -0.1865
      5 C5          1.2142   -0.6822    0.0072 C.ar      1 <0>        -0.0396
      6 C6          0.0021   -0.0041    0.0021 C.ar      1 <0>         0.0573
      7 N1         -1.2018   -0.7210    0.0102 N.pl3     1 <0>        -0.1976
      8 C7         -2.2758   -0.4375   -0.7450 C.2       1 <0>         0.1043
      9 C8         -3.2369   -1.3917   -0.4687 C.2       1 <0>        -0.1556
     10 C9         -2.6673   -2.2134    0.5087 C.2       1 <0>        -0.0001
     11 N2         -1.4449   -1.7580    0.7408 N.2       1 <0>        -0.2690
     12 C10        -3.3067   -3.3759    1.1571 C.2       1 <0>         0.6122
     13 O1         -4.4386   -3.6966    0.8504 O.2       1 <0>        -0.5327
     14 N3         -2.6355   -4.0814    2.0889 N.am      1 <0>        -0.8419
     15 C11        -4.5650   -1.4502   -1.1629 C.3       1 <0>        -0.0354
     16 C12        -5.0406   -0.0548   -1.5748 C.3       1 <0>        -0.0584
     17 C13        -3.9105    0.7675   -2.1317 C.2       1 <0>         0.1243
     18 C14        -2.5967    0.6114   -1.7300 C.2       1 <0>        -0.1907
     19 C15        -1.8227    1.5487   -2.4046 C.2       1 <0>         0.0796
     20 N4         -2.6167    2.2273   -3.1987 N.2       1 <0>        -0.2909
     21 H1         -4.7074    2.0609   -3.5253 H         1 <0>         0.4437
     22 N5         -3.9255    1.7428   -3.0475 N.pl3     1 <0>        -0.4505
     23 N6          3.5820    2.1279   -0.0211 N.pl3     1 <0>        -0.6268
     24 C16         4.8756    1.4376    0.1028 C.3       1 <0>         0.0827
     25 C17         5.7919    1.9212   -1.0271 C.3       1 <0>         0.0451
     26 O2          5.8318    3.3503   -1.0216 O.3       1 <0>        -0.3778
     27 C18         4.5689    3.9720   -1.2715 C.3       1 <0>         0.0453
     28 C19         3.5903    3.5929   -0.1599 C.3       1 <0>         0.0830
     29 H2         -0.9595    1.9119   -0.0100 H         1 <0>         0.1344
     30 H3          1.1539    3.1709   -0.0283 H         1 <0>         0.1362
     31 H4          3.3425   -0.5037    0.0033 H         1 <0>         0.1354
     32 H5          1.2287   -1.7621    0.0167 H         1 <0>         0.1355
     33 H6         -1.7324   -3.8256    2.3336 H         1 <0>         0.4079
     34 H7         -3.0555   -4.8450    2.5148 H         1 <0>         0.4067
     35 H8         -4.4753   -2.0736   -2.0525 H         1 <0>         0.0790
     36 H9         -5.2996   -1.8935   -0.4907 H         1 <0>         0.1025
     37 H10        -5.8180   -0.1523   -2.3326 H         1 <0>         0.0910
     38 H11        -5.4540    0.4528   -0.7033 H         1 <0>         0.0952
     39 H12        -0.7581    1.6927   -2.2944 H         1 <0>         0.1860
     40 H13         5.3263    1.6727    1.0670 H         1 <0>         0.0757
     41 H14         4.7267    0.3611    0.0193 H         1 <0>         0.0952
     42 H15         6.7970    1.5284   -0.8741 H         1 <0>         0.1073
     43 H16         5.4052    1.5715   -1.9843 H         1 <0>         0.0574
     44 H17         4.6942    5.0545   -1.2944 H         1 <0>         0.1078
     45 H18         4.1778    3.6297   -2.2297 H         1 <0>         0.0572
     46 H19         2.5906    3.9429   -0.4172 H         1 <0>         0.0950
     47 H20         3.9094    4.0486    0.7774 H         1 <0>         0.0750
@<TRIPOS>BOND
     1    1    6 ar
     2    1    2 ar
     3    1   29 1
     4    2    3 ar
     5    2   30 1
     6    3    4 ar
     7    3   23 1
     8    4    5 ar
     9    4   31 1
    10    5    6 ar
    11    5   32 1
    12    6    7 1
    13    7   11 1
    14    7    8 1
    15    8    9 2
    16    8   18 1
    17    9   10 1
    18    9   15 1
    19   10   11 2
    20   10   12 1
    21   12   13 2
    22   12   14 am
    23   14   33 1
    24   14   34 1
    25   15   16 1
    26   15   35 1
    27   15   36 1
    28   16   37 1
    29   16   38 1
    30   16   17 1
    31   17   18 2
    32   17   22 1
    33   18   19 1
    34   19   20 2
    35   19   39 1
    36   20   22 1
    37   21   22 1
    38   23   28 1
    39   23   24 1
    40   24   25 1
    41   24   40 1
    42   24   41 1
    43   25   26 1
    44   25   42 1
    45   25   43 1
    46   26   27 1
    47   27   28 1
    48   27   44 1
    49   27   45 1
    50   28   46 1
    51   28   47 1
@<TRIPOS>MOLECULE
CHEMBL85667
   46    50     0     0     0
SMALL
USER_CHARGES

@<TRIPOS>ATOM
      1 C1          4.5839   -0.9401   -4.0731 C.ar      1 <0>        -0.1294
      2 C2          3.4212   -0.2990   -3.6869 C.ar      1 <0>        -0.1024
      3 C3          3.0972   -0.2003   -2.3480 C.ar      1 <0>        -0.1296
      4 C4          3.9410   -0.7460   -1.3889 C.ar      1 <0>         0.1491
      5 C5          5.1082   -1.3894   -1.7803 C.ar      1 <0>        -0.1525
      6 C6          5.4261   -1.4845   -3.1209 C.ar      1 <0>        -0.0975
      7 N1          3.6166   -0.6476   -0.0339 N.pl3     1 <0>        -1.0611
      8 S1          3.7405   -1.9770    0.9458 S.o2      1 <0>         2.6932
      9 O1          5.0498   -2.4973    0.7607 O.2       1 <0>        -0.9594
     10 O2          3.2482   -1.5890    2.2211 O.2       1 <0>        -0.9610
     11 C7          2.6241   -3.1893    0.3225 C.ar      1 <0>        -0.7250
     12 C8          1.2923   -3.1562    0.6969 C.ar      1 <0>         0.0001
     13 C9          0.4127   -4.1017    0.2125 C.ar      1 <0>        -0.1601
     14 C10         0.8691   -5.0944   -0.6578 C.ar      1 <0>         0.2135
     15 C11         2.2148   -5.1218   -1.0314 C.ar      1 <0>        -0.2118
     16 C12         3.0821   -4.1667   -0.5434 C.ar      1 <0>         0.0106
     17 N2          0.0022   -6.0358   -1.1418 N.2       1 <0>        -0.5549
     18 C13         0.0211   -6.3515   -2.4124 C.2       1 <0>         0.2982
     19 C14        -0.8766   -7.3263   -2.9136 C.2       1 <0>        -0.3527
     20 C15        -0.9810   -7.7987   -4.3081 C.ar      1 <0>         0.0133
     21 C16        -2.0046   -8.7591   -4.3145 C.ar      1 <0>         0.1044
     22 C17        -2.3333   -9.3888   -5.5152 C.ar      1 <0>        -0.1031
     23 C18        -1.6868   -9.0944   -6.6728 C.ar      1 <0>        -0.0796
     24 C19        -0.6495   -8.1329   -6.7080 C.ar      1 <0>         0.0492
     25 C20        -0.3243   -7.5006   -5.4906 C.ar      1 <0>        -0.1293
     26 S2          0.9832   -6.4066   -5.9796 S.3       1 <0>         0.0580
     27 C21         1.0249   -6.8057   -7.6142 C.2       1 <0>         0.0419
     28 N3          0.0999   -7.7107   -7.7480 N.2       1 <0>        -0.5021
     29 N4         -2.4926   -8.8700   -3.0256 N.pl3     1 <0>        -0.6235
     30 H1         -3.2076   -9.4668   -2.7547 H         1 <0>         0.4037
     31 C22        -1.8270   -8.0300   -2.1905 C.2       1 <0>         0.4927
     32 O3         -2.0572   -7.8990   -0.8641 O.3       1 <0>        -0.6315
     33 H2          4.8326   -1.0198   -5.1211 H         1 <0>         0.1237
     34 H3          2.7658    0.1254   -4.4331 H         1 <0>         0.1256
     35 H4          2.1892    0.3009   -2.0470 H         1 <0>         0.1268
     36 H5          5.7665   -1.8145   -1.0372 H         1 <0>         0.1543
     37 H6          6.3334   -1.9845   -3.4260 H         1 <0>         0.1281
     38 H7          3.3188    0.1994    0.3333 H         1 <0>         0.4234
     39 H8          0.9410   -2.3883    1.3701 H         1 <0>         0.1301
     40 H9         -0.6264   -4.0748    0.5057 H         1 <0>         0.1309
     41 H10         2.5744   -5.8864   -1.7040 H         1 <0>         0.1236
     42 H11         4.1219   -4.1841   -0.8346 H         1 <0>         0.1304
     43 H12         0.7209   -5.8688   -3.0784 H         1 <0>         0.0786
     44 H13        -3.1203  -10.1284   -5.5243 H         1 <0>         0.1242
     45 H14        -1.9694   -9.6034   -7.5824 H         1 <0>         0.1262
     46 H15         1.6732   -6.4029   -8.3782 H         1 <0>         0.2127
@<TRIPOS>BOND
     1    1    6 ar
     2    1    2 ar
     3    1   33 1
     4    2    3 ar
     5    2   34 1
     6    3    4 ar
     7    3   35 1
     8    4    5 ar
     9    4    7 1
    10    5    6 ar
    11    5   36 1
    12    6   37 1
    13    7    8 1
    14    7   38 1
    15    8    9 2
    16    8   10 2
    17    8   11 1
    18   11   16 ar
    19   11   12 ar
    20   12   13 ar
    21   12   39 1
    22   13   14 ar
    23   13   40 1
    24   14   15 ar
    25   14   17 1
    26   15   16 ar
    27   15   41 1
    28   16   42 1
    29   17   18 2
    30   18   19 1
    31   18   43 1
    32   19   31 2
    33   19   20 1
    34   20   25 ar
    35   20   21 ar
    36   21   22 ar
    37   21   29 1
    38   22   23 ar
    39   22   44 1
    40   23   24 ar
    41   23   45 1
    42   24   28 1
    43   24   25 ar
    44   25   26 1
    45   26   27 1
    46   27   28 2
    47   27   46 1
    48   29   30 1
    49   29   31 1
    50   31   32 1
@<TRIPOS>MOLECULE
CHEMBL85667
   47    51     0     0     0
SMALL
USER_CHARGES

@<TRIPOS>ATOM
      1 C1          4.5839   -0.9401   -4.0731 C.ar      1 <0>        -0.1262
      2 C2          3.4212   -0.2990   -3.6869 C.ar      1 <0>        -0.1025
      3 C3          3.0972   -0.2003   -2.3480 C.ar      1 <0>        -0.1289
      4 C4          3.9410   -0.7460   -1.3889 C.ar      1 <0>         0.1419
      5 C5          5.1082   -1.3894   -1.7803 C.ar      1 <0>        -0.1525
      6 C6          5.4261   -1.4845   -3.1209 C.ar      1 <0>        -0.0966
      7 N1          3.6166   -0.6476   -0.0339 N.pl3     1 <0>        -1.0575
      8 S1          3.7405   -1.9770    0.9458 S.o2      1 <0>         2.6914
      9 O1          5.0498   -2.4973    0.7607 O.2       1 <0>        -0.9485
     10 O2          3.2482   -1.5890    2.2211 O.2       1 <0>        -0.9506
     11 C7          2.6241   -3.1893    0.3225 C.ar      1 <0>        -0.6924
     12 C8          1.2923   -3.1562    0.6969 C.ar      1 <0>        -0.0021
     13 C9          0.4127   -4.1017    0.2125 C.ar      1 <0>        -0.1334
     14 C10         0.8691   -5.0944   -0.6578 C.ar      1 <0>         0.1604
     15 C11         2.2148   -5.1218   -1.0314 C.ar      1 <0>        -0.1801
     16 C12         3.0821   -4.1667   -0.5434 C.ar      1 <0>         0.0063
     17 N2          0.0022   -6.0358   -1.1418 N.2       1 <0>        -0.5033
     18 C13         0.0211   -6.3515   -2.4124 C.2       1 <0>         0.2606
     19 C14        -0.8766   -7.3263   -2.9136 C.2       1 <0>        -0.1894
     20 C15        -0.9810   -7.7987   -4.3081 C.ar      1 <0>        -0.0157
     21 C16        -2.0046   -8.7591   -4.3145 C.ar      1 <0>         0.1092
     22 C17        -2.3333   -9.3888   -5.5152 C.ar      1 <0>        -0.0959
     23 C18        -1.6868   -9.0944   -6.6728 C.ar      1 <0>        -0.0418
     24 C19        -0.6495   -8.1329   -6.7080 C.ar      1 <0>         0.0739
     25 C20        -0.3243   -7.5006   -5.4906 C.ar      1 <0>        -0.1298
     26 S2          0.9832   -6.4066   -5.9796 S.3       1 <0>         0.1001
     27 C21         1.0249   -6.8057   -7.6142 C.2       1 <0>         0.0688
     28 N3          0.0999   -7.7107   -7.7480 N.2       1 <0>        -0.5024
     29 N4         -2.4926   -8.8700   -3.0256 N.pl3     1 <0>        -0.5712
     30 H1         -3.2076   -9.4668   -2.7547 H         1 <0>         0.4249
     31 C22        -1.8270   -8.0300   -2.1905 C.2       1 <0>         0.3518
     32 O3         -2.0572   -7.8990   -0.8641 O.3       1 <0>        -0.4403
     33 H2          4.8326   -1.0198   -5.1211 H         1 <0>         0.1258
     34 H3          2.7658    0.1254   -4.4331 H         1 <0>         0.1273
     35 H4          2.1892    0.3009   -2.0470 H         1 <0>         0.1275
     36 H5          5.7665   -1.8145   -1.0372 H         1 <0>         0.1551
     37 H6          6.3334   -1.9845   -3.4260 H         1 <0>         0.1304
     38 H7          3.3188    0.1994    0.3333 H         1 <0>         0.4272
     39 H8          0.9410   -2.3883    1.3701 H         1 <0>         0.1422
     40 H9         -0.6264   -4.0748    0.5057 H         1 <0>         0.1379
     41 H10         2.5744   -5.8864   -1.7040 H         1 <0>         0.1321
     42 H11         4.1219   -4.1841   -0.8346 H         1 <0>         0.1427
     43 H12         0.7209   -5.8688   -3.0784 H         1 <0>         0.1081
     44 H13        -3.1203  -10.1284   -5.5243 H         1 <0>         0.1397
     45 H14        -1.9694   -9.6034   -7.5824 H         1 <0>         0.1439
     46 H15         1.6732   -6.4029   -8.3782 H         1 <0>         0.2247
     47 H16        -2.7184   -7.2286   -0.6440 H         1 <0>         0.4075
@<TRIPOS>BOND
     1    1    6 ar
     2    1    2 ar
     3    1   33 1
     4    2    3 ar
     5    2   34 1
     6    3    4 ar
     7    3   35 1
     8    4    5 ar
     9    4    7 1
    10    5    6 ar
    11    5   36 1
    12    6   37 1
    13    7    8 1
    14    7   38 1
    15    8    9 2
    16    8   10 2
    17    8   11 1
    18   11   16 ar
    19   11   12 ar
    20   12   13 ar
    21   12   39 1
    22   13   14 ar
    23   13   40 1
    24   14   15 ar
    25   14   17 1
    26   15   16 ar
    27   15   41 1
    28   16   42 1
    29   17   18 2
    30   18   19 1
    31   18   43 1
    32   19   31 2
    33   19   20 1
    34   20   25 ar
    35   20   21 ar
    36   21   22 ar
    37   21   29 1
    38   22   23 ar
    39   22   44 1
    40   23   24 ar
    41   23   45 1
    42   24   28 1
    43   24   25 ar
    44   25   26 1
    45   26   27 1
    46   27   28 2
    47   27   46 1
    48   29   30 1
    49   29   31 1
    50   31   32 1
    51   32   47 1
@<TRIPOS>MOLECULE
CHEMBL421207
   33    36     0     0     0
SMALL
USER_CHARGES

@<TRIPOS>ATOM
      1 C1         -0.0162    1.3432    0.0094 C.2       1 <0>        -0.2140
      2 C2          1.3253    1.7744   -0.0011 C.2       1 <0>        -0.1790
      3 C3          2.0966    0.6544   -0.0144 C.2       1 <0>         0.0167
      4 O1          1.2801   -0.4169   -0.0124 O.3       1 <0>        -0.1709
      5 C4          0.0021   -0.0041    0.0020 C.2       1 <0>        -0.0271
      6 C5          3.5733    0.6188   -0.0295 C.ar      1 <0>         0.0418
      7 C6          4.3004    1.8185   -0.0250 C.ar      1 <0>        -0.1384
      8 C7          5.6617    1.8009   -0.0391 C.ar      1 <0>        -0.0324
      9 C8          6.3456    0.5795   -0.0579 C.ar      1 <0>        -0.1791
     10 C9          5.6256   -0.6314   -0.0621 C.ar      1 <0>         0.1494
     11 C10         4.2356   -0.6033   -0.0423 C.ar      1 <0>        -0.1279
     12 N1          6.5511   -1.6435   -0.0817 N.pl3     1 <0>        -0.5017
     13 H1          6.3470   -2.5918   -0.0891 H         1 <0>         0.4457
     14 N2          7.8356   -1.0908   -0.0899 N.2       1 <0>        -0.2305
     15 C11         7.7623    0.2138   -0.0764 C.2       1 <0>         0.3155
     16 N3          8.8441    1.1016   -0.0792 N.am      1 <0>        -0.6312
     17 C12        10.1053    0.6269   -0.0971 C.2       1 <0>         0.5365
     18 O2         10.3028   -0.5698   -0.1109 O.2       1 <0>        -0.4860
     19 C13        11.2703    1.5829   -0.1001 C.3       1 <0>        -0.1960
     20 C14        12.1168    1.6610   -1.3722 C.3       1 <0>        -0.1498
     21 C15        12.6772    0.9820   -0.1208 C.3       1 <0>        -0.1438
     22 H2         -0.8931    1.9735    0.0252 H         1 <0>         0.1533
     23 H3          1.6736    2.7967    0.0006 H         1 <0>         0.1538
     24 H4         -0.8668   -0.6456    0.0069 H         1 <0>         0.2071
     25 H5          3.7766    2.7629   -0.0106 H         1 <0>         0.1360
     26 H6          6.2138    2.7290   -0.0363 H         1 <0>         0.1342
     27 H7          3.6737   -1.5256   -0.0413 H         1 <0>         0.1359
     28 H8          8.6861    2.0586   -0.0682 H         1 <0>         0.4235
     29 H9         11.1244    2.5034    0.4651 H         1 <0>         0.1303
     30 H10        11.8311    1.0209   -2.2069 H         1 <0>         0.1012
     31 H11        12.5280    2.6331   -1.6442 H         1 <0>         0.1091
     32 H12        13.4570    1.5075    0.4304 H         1 <0>         0.1078
     33 H13        12.7602   -0.1048   -0.1323 H         1 <0>         0.1098
@<TRIPOS>BOND
     1    1    5 2
     2    1    2 1
     3    1   22 1
     4    2    3 2
     5    2   23 1
     6    3    4 1
     7    3    6 1
     8    4    5 1
     9    5   24 1
    10    6   11 ar
    11    6    7 ar
    12    7    8 ar
    13    7   25 1
    14    8    9 ar
    15    8   26 1
    16    9   15 1
    17    9   10 ar
    18   10   11 ar
    19   10   12 1
    20   11   27 1
    21   12   13 1
    22   12   14 1
    23   14   15 2
    24   15   16 1
    25   16   17 am
    26   16   28 1
    27   17   18 2
    28   17   19 1
    29   19   21 1
    30   19   20 1
    31   19   29 1
    32   20   21 1
    33   20   30 1
    34   20   31 1
    35   21   32 1
    36   21   33 1
@<TRIPOS>MOLECULE
CHEMBL180903
   55    59     0     0     0
SMALL
USER_CHARGES

@<TRIPOS>ATOM
      1 C1         10.2840   -0.4055    2.5782 C.ar      1 <0>        -0.1184
      2 C2          9.5083    0.6527    2.1394 C.ar      1 <0>        -0.1412
      3 C3          8.2802    0.4165    1.5565 C.ar      1 <0>        -0.0762
      4 C4          7.8215   -0.8926    1.4095 C.ar      1 <0>        -0.0574
      5 C5          8.6085   -1.9553    1.8535 C.ar      1 <0>        -0.0677
      6 C6          9.8345   -1.7061    2.4352 C.ar      1 <0>        -0.1443
      7 C7          6.5050   -1.1529    0.7855 C.2       1 <0>         0.5183
      8 O1          5.7440   -0.1205    0.3564 O.3       1 <0>        -0.7138
      9 N1          6.0800   -2.3739    0.6498 N.2       1 <0>        -1.0570
     10 S1          4.6069   -2.6652   -0.0484 S.o2      1 <0>         2.6524
     11 O2          3.6276   -2.1304    0.8315 O.2       1 <0>        -1.0078
     12 O3          4.7138   -2.2599   -1.4061 O.2       1 <0>        -1.0065
     13 C8          4.3726   -4.4115   -0.0611 C.ar      1 <0>        -0.6506
     14 C9          4.8087   -5.1582   -1.1403 C.ar      1 <0>         0.0011
     15 C10         4.6271   -6.5271   -1.1534 C.ar      1 <0>        -0.1550
     16 C11         4.0055   -7.1541   -0.0807 C.ar      1 <0>         0.2029
     17 C12         3.5686   -6.4008    1.0019 C.ar      1 <0>        -0.1807
     18 C13         3.7582   -5.0329    1.0107 C.ar      1 <0>         0.0007
     19 N2          3.8197   -8.5385   -0.0908 N.pl3     1 <0>        -0.6514
     20 C14         3.5760   -9.2035   -1.2989 C.2       1 <0>         0.3386
     21 C15         3.2533  -10.5147   -1.4308 C.2       1 <0>        -0.1592
     22 N3          3.1009  -10.7582   -2.7732 N.pl3     1 <0>        -0.3546
     23 C16         2.7837  -11.8813   -3.4678 C.2       1 <0>         0.1539
     24 C17         2.6952  -11.8480   -4.8421 C.2       1 <0>        -0.1982
     25 C18         2.9366  -10.6344   -5.5342 C.2       1 <0>        -0.0626
     26 C19         3.2529   -9.5169   -4.8338 C.2       1 <0>        -0.0849
     27 C20         3.3378   -9.5750   -3.4263 C.2       1 <0>         0.2671
     28 N4          3.6164   -8.6511   -2.5177 N.2       1 <0>        -0.5025
     29 C21         2.3508  -13.0707   -5.5909 C.2       1 <0>         0.4627
     30 O4          2.0344  -14.0812   -4.9928 O.2       1 <0>        -0.4237
     31 C22         2.3903  -13.0682   -7.0667 C.ar      1 <0>        -0.1285
     32 C23         3.5815  -13.3595   -7.7384 C.ar      1 <0>         0.0016
     33 C24         3.6101  -13.3550   -9.1188 C.ar      1 <0>        -0.1039
     34 C25         2.4644  -13.0629   -9.8372 C.ar      1 <0>        -0.0767
     35 C26         1.2818  -12.7736   -9.1800 C.ar      1 <0>        -0.1039
     36 C27         1.2352  -12.7801   -7.8001 C.ar      1 <0>         0.0007
     37 Cl1        -0.2516  -12.4238   -6.9778 Cl        1 <0>        -0.0394
     38 Cl2         5.0207  -13.7252   -6.8392 Cl        1 <0>        -0.0401
     39 H1         11.2463   -0.2157    3.0301 H         1 <0>         0.1140
     40 H2          9.8646    1.6658    2.2538 H         1 <0>         0.1177
     41 H3          7.6753    1.2435    1.2150 H         1 <0>         0.1315
     42 H4          8.2587   -2.9711    1.7425 H         1 <0>         0.1382
     43 H5         10.4446   -2.5280    2.7797 H         1 <0>         0.1173
     44 H6          5.2916   -4.6702   -1.9740 H         1 <0>         0.1381
     45 H7          4.9676   -7.1096   -1.9967 H         1 <0>         0.1455
     46 H8          3.0847   -6.8849    1.8373 H         1 <0>         0.1268
     47 H9          3.4228   -4.4473    1.8540 H         1 <0>         0.1392
     48 H10         3.8596   -9.0393    0.7390 H         1 <0>         0.4209
     49 H11         3.1387  -11.2315   -0.6311 H         1 <0>         0.1875
     50 H12         2.6002  -12.8054   -2.9400 H         1 <0>         0.1771
     51 H13         2.8695  -10.6002   -6.6116 H         1 <0>         0.1444
     52 H14         3.4392   -8.5872   -5.3507 H         1 <0>         0.1610
     53 H15         4.5295  -13.5798   -9.6392 H         1 <0>         0.1490
     54 H16         2.4934  -13.0603  -10.9168 H         1 <0>         0.1495
     55 H17         0.3918  -12.5462   -9.7479 H         1 <0>         0.1490
@<TRIPOS>BOND
     1    1    6 ar
     2    1    2 ar
     3    1   39 1
     4    2    3 ar
     5    2   40 1
     6    3    4 ar
     7    3   41 1
     8    4    5 ar
     9    4    7 1
    10    5    6 ar
    11    5   42 1
    12    6   43 1
    13    7    8 1
    14    7    9 2
    15    9   10 1
    16   10   11 2
    17   10   12 2
    18   10   13 1
    19   13   18 ar
    20   13   14 ar
    21   14   15 ar
    22   14   44 1
    23   15   16 ar
    24   15   45 1
    25   16   17 ar
    26   16   19 1
    27   17   18 ar
    28   17   46 1
    29   18   47 1
    30   19   20 1
    31   19   48 1
    32   20   28 1
    33   20   21 2
    34   21   22 1
    35   21   49 1
    36   22   27 1
    37   22   23 1
    38   23   24 2
    39   23   50 1
    40   24   25 1
    41   24   29 1
    42   25   26 2
    43   25   51 1
    44   26   27 1
    45   26   52 1
    46   27   28 2
    47   29   30 2
    48   29   31 1
    49   31   36 ar
    50   31   32 ar
    51   32   33 ar
    52   32   38 1
    53   33   34 ar
    54   33   53 1
    55   34   35 ar
    56   34   54 1
    57   35   36 ar
    58   35   55 1
    59   36   37 1
@<TRIPOS>MOLECULE
CHEMBL565160
   65    69     0     0     0
SMALL
USER_CHARGES

@<TRIPOS>ATOM
      1 C1         -0.9467    1.0364    1.6163 C.3       1 <0>        -0.1463
      2 C2         -0.7146   -0.4545    1.3625 C.3       1 <0>         0.0125
      3 C3         -0.3407   -0.6685   -0.1047 C.3       1 <0>        -0.0554
      4 C4          0.2313   -2.0332   -0.3564 C.ar      1 <0>        -0.2130
      5 C5         -0.0159   -2.6969   -1.5435 C.ar      1 <0>         0.1980
      6 N1          0.5278   -3.8884   -1.7411 N.ar      1 <0>        -0.5496
      7 C6          1.3050   -4.4532   -0.8279 C.ar      1 <0>         0.5639
      8 N2          1.5616   -3.8586    0.3297 N.ar      1 <0>        -0.5573
      9 C7          1.0360   -2.6727    0.5974 C.ar      1 <0>         0.2921
     10 C8          1.2179   -1.9934    1.8917 C.2       1 <0>         0.0412
     11 C9          0.3964   -0.9441    2.2449 C.2       1 <0>        -0.1144
     12 C10         0.8381   -0.5264    3.5007 C.2       1 <0>         0.0011
     13 N3          1.8408   -1.3209    3.8450 N.2       1 <0>        -0.2459
     14 N4          2.0655   -2.1927    2.9198 N.pl3     1 <0>        -0.2457
     15 C11         3.0875   -3.2407    2.9790 C.3       1 <0>         0.0823
     16 C12         0.2911    0.5918    4.2965 C.2       1 <0>         0.6140
     17 O1         -0.7690    0.4629    4.8775 O.2       1 <0>        -0.5189
     18 N5          0.9673    1.7548    4.3783 N.am      1 <0>        -0.7220
     19 C13         0.4248    2.8636    5.1673 C.3       1 <0>         0.0864
     20 N6          1.8625   -5.6944   -1.0887 N.pl3     1 <0>        -0.6362
     21 C14         1.6940   -6.2866   -2.3439 C.ar      1 <0>         0.1648
     22 C15         1.6328   -5.4956   -3.4843 C.ar      1 <0>        -0.1116
     23 C16         1.4668   -6.0837   -4.7226 C.ar      1 <0>        -0.0984
     24 C17         1.3616   -7.4587   -4.8283 C.ar      1 <0>        -0.1311
     25 C18         1.4216   -8.2489   -3.6952 C.ar      1 <0>        -0.0582
     26 C19         1.5932   -7.6673   -2.4541 C.ar      1 <0>        -0.1253
     27 C20         1.3060   -9.7466   -3.8151 C.3       1 <0>         0.0942
     28 N7          2.6431  -10.3283   -3.9932 N.3       1 <0>        -0.5315
     29 C21         3.2258   -9.9249   -5.2813 C.3       1 <0>         0.0134
     30 C22         4.6387  -10.5025   -5.3993 C.3       1 <0>         0.0632
     31 O2          4.5810  -11.9240   -5.2526 O.3       1 <0>        -0.3855
     32 C23         4.0193  -12.3521   -4.0090 C.3       1 <0>         0.0635
     33 C24         2.6001  -11.7932   -3.8769 C.3       1 <0>         0.0166
     34 C25        -1.9951   -1.2299    1.6787 C.3       1 <0>        -0.1387
     35 H1         -0.0058    1.5749    1.5033 H         1 <0>         0.0579
     36 H2         -1.6725    1.4185    0.8985 H         1 <0>         0.0675
     37 H3         -1.3271    1.1778    2.6279 H         1 <0>         0.0667
     38 H4         -1.2325   -0.5410   -0.7184 H         1 <0>         0.0897
     39 H5          0.3951    0.0816   -0.3945 H         1 <0>         0.0831
     40 H6         -0.6444   -2.2501   -2.2997 H         1 <0>         0.1770
     41 H7          4.0194   -2.8636    2.5577 H         1 <0>         0.0877
     42 H8          3.2495   -3.5320    4.0168 H         1 <0>         0.0993
     43 H9          2.7540   -4.1062    2.4065 H         1 <0>         0.1110
     44 H10         1.8131    1.8577    3.9147 H         1 <0>         0.4051
     45 H11        -0.5477    3.1519    4.7682 H         1 <0>         0.0644
     46 H12         0.3132    2.5503    6.2054 H         1 <0>         0.0635
     47 H13         1.1053    3.7135    5.1155 H         1 <0>         0.0796
     48 H14         2.3696   -6.1526   -0.4004 H         1 <0>         0.4233
     49 H15         1.7146   -4.4218   -3.4024 H         1 <0>         0.1333
     50 H16         1.4188   -5.4693   -5.6095 H         1 <0>         0.1254
     51 H17         1.2318   -7.9162   -5.7979 H         1 <0>         0.1192
     52 H18         1.6446   -8.2854   -1.5700 H         1 <0>         0.1242
     53 H19         0.8521  -10.1496   -2.9098 H         1 <0>         0.0853
     54 H20         0.6841   -9.9953   -4.6751 H         1 <0>         0.0475
     55 H21         2.6082  -10.3048   -6.0951 H         1 <0>         0.0434
     56 H22         3.2716   -8.8372   -5.3353 H         1 <0>         0.0921
     57 H23         5.0531  -10.2540   -6.3763 H         1 <0>         0.0984
     58 H24         5.2706  -10.0813   -4.6173 H         1 <0>         0.0595
     59 H25         3.9857  -13.4412   -3.9805 H         1 <0>         0.0991
     60 H26         4.6332  -11.9846   -3.1866 H         1 <0>         0.0600
     61 H27         2.1891  -12.0693   -2.9058 H         1 <0>         0.0873
     62 H28         1.9725  -12.2029   -4.6683 H         1 <0>         0.0446
     63 H29        -2.8029   -0.8736    1.0395 H         1 <0>         0.0655
     64 H30        -1.8305   -2.2922    1.4981 H         1 <0>         0.0512
     65 H31        -2.2641   -1.0764    2.7238 H         1 <0>         0.0656
@<TRIPOS>BOND
     1    1    2 1
     2    1   35 1
     3    1   36 1
     4    1   37 1
     5    2   11 1
     6    2    3 1
     7    2   34 1
     8    3    4 1
     9    3   38 1
    10    3   39 1
    11    4    9 ar
    12    4    5 ar
    13    5    6 ar
    14    5   40 1
    15    6    7 ar
    16    7    8 ar
    17    7   20 1
    18    8    9 ar
    19    9   10 1
    20   10   14 1
    21   10   11 2
    22   11   12 1
    23   12   13 2
    24   12   16 1
    25   13   14 1
    26   14   15 1
    27   15   41 1
    28   15   42 1
    29   15   43 1
    30   16   17 2
    31   16   18 am
    32   18   19 1
    33   18   44 1
    34   19   45 1
    35   19   46 1
    36   19   47 1
    37   20   21 1
    38   20   48 1
    39   21   26 ar
    40   21   22 ar
    41   22   23 ar
    42   22   49 1
    43   23   24 ar
    44   23   50 1
    45   24   25 ar
    46   24   51 1
    47   25   26 ar
    48   25   27 1
    49   26   52 1
    50   27   28 1
    51   27   53 1
    52   27   54 1
    53   28   33 1
    54   28   29 1
    55   29   30 1
    56   29   55 1
    57   29   56 1
    58   30   31 1
    59   30   57 1
    60   30   58 1
    61   31   32 1
    62   32   33 1
    63   32   59 1
    64   32   60 1
    65   33   61 1
    66   33   62 1
    67   34   63 1
    68   34   64 1
    69   34   65 1
@<TRIPOS>MOLECULE
CHEMBL181289
   49    52     0     0     0
SMALL
USER_CHARGES

@<TRIPOS>ATOM
      1 C1         -0.0189    1.3826    0.1140 C.ar      1 <0>        -0.0748
      2 C2          0.5424    1.0487   -1.1057 C.ar      1 <0>        -0.1033
      3 C3          1.7480    0.3776   -1.1544 C.ar      1 <0>         0.0014
      4 C4          2.4018    0.0354    0.0332 C.ar      1 <0>        -0.1314
      5 C5          1.8279    0.3765    1.2618 C.ar      1 <0>         0.0011
      6 C6          0.6218    1.0476    1.2936 C.ar      1 <0>        -0.1033
      7 Cl1         2.6296   -0.0433    2.7433 Cl        1 <0>        -0.0403
      8 C7          3.6911   -0.6826   -0.0097 C.2       1 <0>         0.4612
      9 O1          4.7293   -0.0614   -0.1338 O.2       1 <0>        -0.4188
     10 C8          3.7200   -2.1530    0.0977 C.2       1 <0>        -0.1911
     11 C9          2.5079   -2.8878    0.1277 C.2       1 <0>        -0.0576
     12 C10         2.5482   -4.2399    0.2262 C.2       1 <0>        -0.0876
     13 C11         3.7943   -4.8985    0.2977 C.2       1 <0>         0.2686
     14 N1          4.1127   -6.1813    0.3971 N.2       1 <0>        -0.5063
     15 C12         5.4454   -6.3045    0.4318 C.2       1 <0>         0.3246
     16 C13         5.9945   -5.0663    0.3525 C.2       1 <0>        -0.1458
     17 N2          4.9573   -4.1712    0.2674 N.pl3     1 <0>        -0.3543
     18 C14         4.9249   -2.8174    0.1635 C.2       1 <0>         0.1517
     19 N3          6.1534   -7.5085    0.5333 N.pl3     1 <0>        -0.6466
     20 C15         5.4708   -8.7263    0.4846 C.ar      1 <0>         0.2337
     21 C16         4.2495   -8.8142   -0.1718 C.ar      1 <0>        -0.1623
     22 C17         3.5777  -10.0198   -0.2184 C.ar      1 <0>         0.0105
     23 C18         4.1193  -11.1389    0.3873 C.ar      1 <0>        -0.6668
     24 C19         5.3348  -11.0550    1.0416 C.ar      1 <0>         0.0113
     25 C20         6.0145   -9.8538    1.0876 C.ar      1 <0>        -0.1871
     26 S1          3.2584  -12.6750    0.3259 S.o2      1 <0>         2.6523
     27 O2          3.7122  -13.4396    1.4344 O.2       1 <0>        -0.9916
     28 O3          1.8864  -12.3639    0.1256 O.2       1 <0>        -0.9903
     29 N4          3.7676  -13.4676   -1.0360 N.2       1 <0>        -1.0524
     30 C21         3.2833  -14.6424   -1.3259 C.2       1 <0>         0.7476
     31 N5          2.3496  -15.2237   -0.5010 N.pl3     1 <0>        -0.8801
     32 N6          3.7061  -15.3004   -2.4566 N.pl3     1 <0>        -0.8184
     33 Cl2         2.4500   -0.0407   -2.6861 Cl        1 <0>        -0.0397
     34 H1         -0.9600    1.9115    0.1453 H         1 <0>         0.1507
     35 H2          0.0360    1.3134   -2.0222 H         1 <0>         0.1499
     36 H3          0.1772    1.3118    2.2417 H         1 <0>         0.1499
     37 H4          1.5593   -2.3746    0.0727 H         1 <0>         0.1470
     38 H5          1.6311   -4.8097    0.2503 H         1 <0>         0.1616
     39 H6          7.0483   -4.8297    0.3557 H         1 <0>         0.1895
     40 H7          5.8486   -2.2585    0.1366 H         1 <0>         0.1799
     41 H8          7.1177   -7.4968    0.6375 H         1 <0>         0.4243
     42 H9          3.8258   -7.9406   -0.6447 H         1 <0>         0.1523
     43 H10         2.6281  -10.0888   -0.7282 H         1 <0>         0.1401
     44 H11         5.7549  -11.9308    1.5136 H         1 <0>         0.1413
     45 H12         6.9657   -9.7899    1.5952 H         1 <0>         0.1336
     46 H13         2.0513  -14.7594    0.2968 H         1 <0>         0.4126
     47 H14         4.3649  -14.8903   -3.0386 H         1 <0>         0.4293
     48 H15         3.3456  -16.1747   -2.6723 H         1 <0>         0.4111
     49 H16         1.9891  -16.0980   -0.7167 H         1 <0>         0.4129
@<TRIPOS>BOND
     1    1    6 ar
     2    1    2 ar
     3    1   34 1
     4    2    3 ar
     5    2   35 1
     6    3    4 ar
     7    3   33 1
     8    4    5 ar
     9    4    8 1
    10    5    6 ar
    11    5    7 1
    12    6   36 1
    13    8    9 2
    14    8   10 1
    15   10   18 2
    16   10   11 1
    17   11   12 2
    18   11   37 1
    19   12   13 1
    20   12   38 1
    21   13   17 1
    22   13   14 2
    23   14   15 1
    24   15   16 2
    25   15   19 1
    26   16   17 1
    27   16   39 1
    28   17   18 1
    29   18   40 1
    30   19   20 1
    31   19   41 1
    32   20   25 ar
    33   20   21 ar
    34   21   22 ar
    35   21   42 1
    36   22   23 ar
    37   22   43 1
    38   23   24 ar
    39   23   26 1
    40   24   25 ar
    41   24   44 1
    42   25   45 1
    43   26   27 2
    44   26   28 2
    45   26   29 1
    46   29   30 2
    47   30   31 1
    48   30   32 1
    49   31   46 1
    50   31   49 1
    51   32   47 1
    52   32   48 1
@<TRIPOS>MOLECULE
CHEMBL181289
   49    52     0     0     0
SMALL
USER_CHARGES

@<TRIPOS>ATOM
      1 C1         -0.0189    1.3826    0.1140 C.ar      1 <0>        -0.0746
      2 C2          0.5424    1.0487   -1.1057 C.ar      1 <0>        -0.1033
      3 C3          1.7480    0.3776   -1.1544 C.ar      1 <0>         0.0014
      4 C4          2.4018    0.0354    0.0332 C.ar      1 <0>        -0.1316
      5 C5          1.8279    0.3765    1.2618 C.ar      1 <0>         0.0011
      6 C6          0.6218    1.0476    1.2936 C.ar      1 <0>        -0.1031
      7 Cl1         2.6296   -0.0433    2.7433 Cl        1 <0>        -0.0401
      8 C7          3.6911   -0.6826   -0.0097 C.2       1 <0>         0.4611
      9 O1          4.7293   -0.0614   -0.1338 O.2       1 <0>        -0.4187
     10 C8          3.7200   -2.1530    0.0977 C.2       1 <0>        -0.1908
     11 C9          2.5079   -2.8878    0.1277 C.2       1 <0>        -0.0574
     12 C10         2.5482   -4.2399    0.2262 C.2       1 <0>        -0.0877
     13 C11         3.7943   -4.8985    0.2977 C.2       1 <0>         0.2684
     14 N1          4.1127   -6.1813    0.3971 N.2       1 <0>        -0.5057
     15 C12         5.4454   -6.3045    0.4318 C.2       1 <0>         0.3243
     16 C13         5.9945   -5.0663    0.3525 C.2       1 <0>        -0.1463
     17 N2          4.9573   -4.1712    0.2674 N.pl3     1 <0>        -0.3543
     18 C14         4.9249   -2.8174    0.1635 C.2       1 <0>         0.1514
     19 N3          6.1534   -7.5085    0.5333 N.pl3     1 <0>        -0.6470
     20 C15         5.4708   -8.7263    0.4846 C.ar      1 <0>         0.2382
     21 C16         4.2495   -8.8142   -0.1718 C.ar      1 <0>        -0.1694
     22 C17         3.5777  -10.0198   -0.2184 C.ar      1 <0>         0.0045
     23 C18         4.1193  -11.1389    0.3873 C.ar      1 <0>        -0.7018
     24 C19         5.3348  -11.0550    1.0416 C.ar      1 <0>         0.0440
     25 C20         6.0145   -9.8538    1.0876 C.ar      1 <0>        -0.1968
     26 S1          3.2584  -12.6750    0.3259 S.o2      1 <0>         2.7086
     27 O2          3.7122  -13.4396    1.4344 O.2       1 <0>        -0.9237
     28 O3          1.8864  -12.3639    0.1256 O.2       1 <0>        -0.9553
     29 N4          3.7676  -13.4676   -1.0360 N.pl3     1 <0>        -1.0361
     30 C21         5.0754  -13.8779   -1.1441 C.2       1 <0>         0.6438
     31 N5          5.9143  -13.6431   -0.1746 N.2       1 <0>        -0.8006
     32 N6          5.4982  -14.5359   -2.2748 N.pl3     1 <0>        -0.8861
     33 Cl2         2.4500   -0.0407   -2.6861 Cl        1 <0>        -0.0400
     34 H1         -0.9600    1.9115    0.1453 H         1 <0>         0.1508
     35 H2          0.0360    1.3134   -2.0222 H         1 <0>         0.1499
     36 H3          0.1772    1.3118    2.2417 H         1 <0>         0.1500
     37 H4          1.5593   -2.3746    0.0727 H         1 <0>         0.1471
     38 H5          1.6311   -4.8097    0.2503 H         1 <0>         0.1616
     39 H6          7.0483   -4.8297    0.3557 H         1 <0>         0.1891
     40 H7          5.8486   -2.2585    0.1366 H         1 <0>         0.1798
     41 H8          7.1177   -7.4968    0.6375 H         1 <0>         0.4239
     42 H9          3.8258   -7.9406   -0.6447 H         1 <0>         0.1502
     43 H10         2.6281  -10.0888   -0.7282 H         1 <0>         0.1376
     44 H11         5.7549  -11.9308    1.5136 H         1 <0>         0.1571
     45 H12         6.9657   -9.7899    1.5952 H         1 <0>         0.1310
     46 H13         3.1433  -13.6423   -1.7575 H         1 <0>         0.4303
     47 H14         6.8369  -13.9326   -0.2508 H         1 <0>         0.3576
     48 H15         4.8738  -14.7106   -2.9963 H         1 <0>         0.3955
     49 H16         6.4208  -14.8254   -2.3510 H         1 <0>         0.4119
@<TRIPOS>BOND
     1    1    6 ar
     2    1    2 ar
     3    1   34 1
     4    2    3 ar
     5    2   35 1
     6    3    4 ar
     7    3   33 1
     8    4    5 ar
     9    4    8 1
    10    5    6 ar
    11    5    7 1
    12    6   36 1
    13    8    9 2
    14    8   10 1
    15   10   18 2
    16   10   11 1
    17   11   12 2
    18   11   37 1
    19   12   13 1
    20   12   38 1
    21   13   17 1
    22   13   14 2
    23   14   15 1
    24   15   16 2
    25   15   19 1
    26   16   17 1
    27   16   39 1
    28   17   18 1
    29   18   40 1
    30   19   20 1
    31   19   41 1
    32   20   25 ar
    33   20   21 ar
    34   21   22 ar
    35   21   42 1
    36   22   23 ar
    37   22   43 1
    38   23   24 ar
    39   23   26 1
    40   24   25 ar
    41   24   44 1
    42   25   45 1
    43   26   27 2
    44   26   28 2
    45   26   29 1
    46   29   30 1
    47   29   46 1
    48   30   31 2
    49   30   32 1
    50   31   47 1
    51   32   48 1
    52   32   49 1
@<TRIPOS>MOLECULE
CHEMBL360480
   45    49     0     0     0
SMALL
USER_CHARGES

@<TRIPOS>ATOM
      1 C1         -0.0167    1.3848    0.0127 C.ar      1 <0>        -0.0645
      2 C2          1.1689    2.0911    0.0051 C.ar      1 <0>        -0.1831
      3 C3          2.3813    1.4129   -0.0131 C.ar      1 <0>         0.2353
      4 C4          2.4000    0.0238   -0.0235 C.ar      1 <0>        -0.1844
      5 C5          1.2142   -0.6823   -0.0159 C.ar      1 <0>        -0.0423
      6 C6          0.0021   -0.0041    0.0022 C.ar      1 <0>         0.0624
      7 N1         -1.2016   -0.7209    0.0098 N.pl3     1 <0>        -0.2391
      8 C7         -2.2855   -0.4181   -0.7681 C.ar      1 <0>         0.1365
      9 C8         -3.2688   -1.3699   -0.4588 C.ar      1 <0>        -0.1386
     10 C9         -4.5151   -1.3357   -1.0929 C.ar      1 <0>         0.0050
     11 C10        -4.7890   -0.3772   -2.0195 C.ar      1 <0>        -0.1509
     12 C11        -3.8296    0.5856   -2.3503 C.ar      1 <0>         0.1612
     13 C12        -2.5708    0.5734   -1.7269 C.ar      1 <0>        -0.1756
     14 C13        -1.8340    1.6539   -2.2622 C.2       1 <0>         0.0733
     15 N2         -2.5764    2.2729   -3.1349 N.2       1 <0>        -0.2534
     16 N3         -3.8233    1.6428   -3.2231 N.pl3     1 <0>        -0.4890
     17 H1         -4.5561    1.9089   -3.8003 H         1 <0>         0.4462
     18 C14        -2.6410   -2.2268    0.5558 C.2       1 <0>         0.0124
     19 N4         -1.4274   -1.7497    0.7437 N.2       1 <0>        -0.2202
     20 C15        -3.2459   -3.3915    1.2255 C.2       1 <0>         0.6145
     21 O1         -4.3820   -3.7283    0.9515 O.2       1 <0>        -0.5293
     22 N5         -2.5402   -4.0836    2.1417 N.am      1 <0>        -0.8396
     23 N6          3.5821    2.1281   -0.0212 N.pl3     1 <0>        -0.6267
     24 C16         4.8768    1.4357    0.0771 C.3       1 <0>         0.0827
     25 C17         5.7814    1.9389   -1.0536 C.3       1 <0>         0.0450
     26 O2          5.8216    3.3676   -1.0237 O.3       1 <0>        -0.3777
     27 C18         4.5563    3.9936   -1.2496 C.3       1 <0>         0.0452
     28 C19         3.5893    3.5952   -0.1346 C.3       1 <0>         0.0830
     29 H2         -0.9592    1.9120    0.0313 H         1 <0>         0.1352
     30 H3          1.1543    3.1710    0.0129 H         1 <0>         0.1371
     31 H4          3.3424   -0.5036   -0.0380 H         1 <0>         0.1356
     32 H5          1.2286   -1.7621   -0.0244 H         1 <0>         0.1351
     33 H6         -5.2638   -2.0740   -0.8461 H         1 <0>         0.1501
     34 H7         -5.7544   -0.3601   -2.5034 H         1 <0>         0.1384
     35 H8         -0.8231    1.9218   -1.9923 H         1 <0>         0.1917
     36 H9         -1.6342   -3.8150    2.3602 H         1 <0>         0.4083
     37 H10        -2.9385   -4.8504    2.5825 H         1 <0>         0.4094
     38 H11         5.3376    1.6539    1.0406 H         1 <0>         0.0758
     39 H12         4.7269    0.3608   -0.0235 H         1 <0>         0.0951
     40 H13         6.7880    1.5434   -0.9179 H         1 <0>         0.1073
     41 H14         5.3847    1.6058   -2.0127 H         1 <0>         0.0574
     42 H15         4.6816    5.0764   -1.2550 H         1 <0>         0.1079
     43 H16         4.1552    3.6680   -2.2094 H         1 <0>         0.0573
     44 H17         2.5870    3.9497   -0.3754 H         1 <0>         0.0951
     45 H18         3.9182    4.0346    0.8071 H         1 <0>         0.0752
@<TRIPOS>BOND
     1    1    6 ar
     2    1    2 ar
     3    1   29 1
     4    2    3 ar
     5    2   30 1
     6    3    4 ar
     7    3   23 1
     8    4    5 ar
     9    4   31 1
    10    5    6 ar
    11    5   32 1
    12    6    7 1
    13    7   19 1
    14    7    8 1
    15    8   13 ar
    16    8    9 ar
    17    9   10 ar
    18    9   18 1
    19   10   11 ar
    20   10   33 1
    21   11   12 ar
    22   11   34 1
    23   12   16 1
    24   12   13 ar
    25   13   14 1
    26   14   15 2
    27   14   35 1
    28   15   16 1
    29   16   17 1
    30   18   19 2
    31   18   20 1
    32   20   21 2
    33   20   22 am
    34   22   36 1
    35   22   37 1
    36   23   28 1
    37   23   24 1
    38   24   25 1
    39   24   38 1
    40   24   39 1
    41   25   26 1
    42   25   40 1
    43   25   41 1
    44   26   27 1
    45   27   28 1
    46   27   42 1
    47   27   43 1
    48   28   44 1
    49   28   45 1
@<TRIPOS>MOLECULE
CHEMBL360480
   45    49     0     0     0
SMALL
USER_CHARGES

@<TRIPOS>ATOM
      1 C1         -0.0166    1.3847    0.0239 C.ar      1 <0>        -0.0444
      2 C2          1.1690    2.0910    0.0164 C.ar      1 <0>        -0.1802
      3 C3          2.3813    1.4129   -0.0131 C.ar      1 <0>         0.2324
      4 C4          2.3998    0.0239   -0.0351 C.ar      1 <0>        -0.1839
      5 C5          1.2140   -0.6821   -0.0275 C.ar      1 <0>        -0.0806
      6 C6          0.0021   -0.0041    0.0020 C.ar      1 <0>         0.0675
      7 N1         -1.2016   -0.7209    0.0097 N.pl3     1 <0>        -0.2247
      8 C7         -1.4000   -1.9004   -0.6474 C.ar      1 <0>         0.1221
      9 C8         -2.7191   -2.2837   -0.3888 C.ar      1 <0>        -0.1261
     10 C9         -3.2623   -3.4679   -0.9184 C.ar      1 <0>        -0.0198
     11 C10        -2.5455   -4.3003   -1.7035 C.ar      1 <0>        -0.1034
     12 C11        -1.1581   -3.9876   -2.0310 C.ar      1 <0>         0.1313
     13 C12        -0.5672   -2.7534   -1.4900 C.ar      1 <0>        -0.1856
     14 C13         0.7302   -2.7061   -1.9491 C.2       1 <0>         0.0785
     15 N2          0.9408   -3.7958   -2.7045 N.pl3     1 <0>        -0.4400
     16 N3         -0.2207   -4.5757   -2.7477 N.2       1 <0>        -0.2818
     17 H1          1.7740   -4.0114   -3.1520 H         1 <0>         0.4471
     18 C14        -3.2441   -1.2145    0.4721 C.2       1 <0>         0.0128
     19 N4         -2.2583   -0.3559    0.6401 N.2       1 <0>        -0.2376
     20 C15        -4.6013   -1.1233    1.0393 C.2       1 <0>         0.6140
     21 O1         -5.4176   -1.9942    0.8062 O.2       1 <0>        -0.5275
     22 N5         -4.9379   -0.0748    1.8164 N.am      1 <0>        -0.8404
     23 N6          3.5821    2.1280   -0.0212 N.pl3     1 <0>        -0.6270
     24 C16         4.8771    1.4349    0.0665 C.3       1 <0>         0.0828
     25 C17         5.7768    1.9464   -1.0645 C.3       1 <0>         0.0452
     26 O2          5.8173    3.3748   -1.0242 O.3       1 <0>        -0.3772
     27 C18         4.5511    4.0025   -1.2401 C.3       1 <0>         0.0454
     28 C19         3.5888    3.5960   -0.1238 C.3       1 <0>         0.0830
     29 H2         -0.9589    1.9117    0.0514 H         1 <0>         0.1382
     30 H3          1.1545    3.1708    0.0331 H         1 <0>         0.1362
     31 H4          3.3421   -0.5034   -0.0584 H         1 <0>         0.1365
     32 H5          1.2283   -1.7619   -0.0446 H         1 <0>         0.1396
     33 H6         -4.2871   -3.7201   -0.6892 H         1 <0>         0.1466
     34 H7         -3.0002   -5.2005   -2.0900 H         1 <0>         0.1421
     35 H8          1.4508   -1.9295   -1.7390 H         1 <0>         0.1921
     36 H9         -4.2869    0.6198    2.0023 H         1 <0>         0.4077
     37 H10        -5.8312   -0.0148    2.1897 H         1 <0>         0.4090
     38 H11         5.3421    1.6460    1.0294 H         1 <0>         0.0762
     39 H12         4.7267    0.3607   -0.0415 H         1 <0>         0.0941
     40 H13         6.7840    1.5499   -0.9361 H         1 <0>         0.1074
     41 H14         5.3760    1.6204   -2.0242 H         1 <0>         0.0568
     42 H15         4.6764    5.0853   -1.2380 H         1 <0>         0.1083
     43 H16         4.1458    3.6840   -2.2005 H         1 <0>         0.0567
     44 H17         2.5856    3.9522   -0.3577 H         1 <0>         0.0949
     45 H18         3.9218    4.0284    0.8197 H         1 <0>         0.0756
@<TRIPOS>BOND
     1    1    6 ar
     2    1    2 ar
     3    1   29 1
     4    2    3 ar
     5    2   30 1
     6    3    4 ar
     7    3   23 1
     8    4    5 ar
     9    4   31 1
    10    5    6 ar
    11    5   32 1
    12    6    7 1
    13    7   19 1
    14    7    8 1
    15    8   13 ar
    16    8    9 ar
    17    9   10 ar
    18    9   18 1
    19   10   11 ar
    20   10   33 1
    21   11   12 ar
    22   11   34 1
    23   12   13 ar
    24   12   16 2
    25   13   14 2
    26   14   35 1
    27   14   15 1
    28   15   17 1
    29   15   16 1
    30   18   19 2
    31   18   20 1
    32   20   21 2
    33   20   22 am
    34   22   36 1
    35   22   37 1
    36   23   28 1
    37   23   24 1
    38   24   25 1
    39   24   38 1
    40   24   39 1
    41   25   26 1
    42   25   40 1
    43   25   41 1
    44   26   27 1
    45   27   28 1
    46   27   42 1
    47   27   43 1
    48   28   44 1
    49   28   45 1
@<TRIPOS>MOLECULE
CHEMBL497564
   40    44     0     0     0
SMALL
USER_CHARGES

@<TRIPOS>ATOM
      1 C1          2.1261    1.4102   -0.7402 C.ar      1 <0>        -0.0949
      2 C2          1.1993    2.0884    0.0265 C.ar      1 <0>        -0.1265
      3 C3          0.2709    1.3798    0.7870 C.ar      1 <0>         0.0028
      4 C4          0.2806   -0.0126    0.7707 C.ar      1 <0>        -0.0842
      5 C5          1.2142   -0.6863   -0.0022 C.ar      1 <0>         0.1666
      6 C6          2.1367    0.0286   -0.7572 C.ar      1 <0>        -0.1437
      7 N1          1.2282   -2.0844   -0.0214 N.pl3     1 <0>        -0.6396
      8 C7          0.0416   -2.7906    0.0912 C.ar      1 <0>         0.5670
      9 N2         -1.1059   -2.1275    0.0997 N.ar      1 <0>        -0.5589
     10 C8         -2.2624   -2.7651    0.2056 C.ar      1 <0>         0.1977
     11 C9         -2.2685   -4.1426    0.3086 C.ar      1 <0>        -0.2741
     12 C10        -1.0414   -4.8177    0.2970 C.ar      1 <0>         0.3086
     13 N3          0.0831   -4.1103    0.1821 N.ar      1 <0>        -0.5727
     14 C11        -0.9939   -6.2903    0.4050 C.2       1 <0>        -0.1955
     15 C12        -2.0900   -7.1509    0.5189 C.2       1 <0>         0.0983
     16 N4         -1.6538   -8.3870    0.5911 N.2       1 <0>        -0.2500
     17 N5         -0.2562   -8.3906    0.5278 N.pl3     1 <0>        -0.1752
     18 C13         0.1597   -7.0899    0.4064 C.2       1 <0>         0.0971
     19 C14         1.5282   -6.8059    0.3162 C.2       1 <0>        -0.0247
     20 C15         2.4232   -7.8359    0.3479 C.2       1 <0>        -0.1585
     21 C16         1.9694   -9.1527    0.4691 C.2       1 <0>         0.1192
     22 N6          0.6922   -9.4197    0.5614 N.2       1 <0>        -0.2137
     23 C17        -0.7250    2.1072    1.6122 C.2       1 <0>         0.0274
     24 C18        -0.9135    3.4489    1.6458 C.2       1 <0>        -0.0573
     25 O1         -1.9095    3.6837    2.5213 O.3       1 <0>        -0.2023
     26 C19        -2.3172    2.5046    3.0096 C.2       1 <0>         0.1765
     27 N7         -1.6159    1.5535    2.4652 N.2       1 <0>        -0.4763
     28 H1          2.8420    1.9613   -1.3320 H         1 <0>         0.1312
     29 H2          1.1942    3.1683    0.0372 H         1 <0>         0.1239
     30 H3         -0.4366   -0.5661    1.3587 H         1 <0>         0.1464
     31 H4          2.8633   -0.4971   -1.3588 H         1 <0>         0.1266
     32 H5          2.0686   -2.5598   -0.1135 H         1 <0>         0.4224
     33 H6         -3.1909   -2.2134    0.2117 H         1 <0>         0.1712
     34 H7         -3.1976   -4.6862    0.3964 H         1 <0>         0.1473
     35 H8         -3.1264   -6.8481    0.5438 H         1 <0>         0.2094
     36 H9          1.8707   -5.7859    0.2225 H         1 <0>         0.1700
     37 H10         3.4818   -7.6338    0.2791 H         1 <0>         0.1608
     38 H11         2.6847   -9.9615    0.4930 H         1 <0>         0.2089
     39 H12        -0.3685    4.1889    1.0786 H         1 <0>         0.2180
     40 H13        -3.1050    2.3656    3.7352 H         1 <0>         0.2510
@<TRIPOS>BOND
     1    1    6 ar
     2    1    2 ar
     3    1   28 1
     4    2    3 ar
     5    2   29 1
     6    3    4 ar
     7    3   23 1
     8    4    5 ar
     9    4   30 1
    10    5    6 ar
    11    5    7 1
    12    6   31 1
    13    7    8 1
    14    7   32 1
    15    8   13 ar
    16    8    9 ar
    17    9   10 ar
    18   10   11 ar
    19   10   33 1
    20   11   12 ar
    21   11   34 1
    22   12   13 ar
    23   12   14 1
    24   14   18 2
    25   14   15 1
    26   15   16 2
    27   15   35 1
    28   16   17 1
    29   17   22 1
    30   17   18 1
    31   18   19 1
    32   19   20 2
    33   19   36 1
    34   20   21 1
    35   20   37 1
    36   21   22 2
    37   21   38 1
    38   23   27 1
    39   23   24 2
    40   24   25 1
    41   24   39 1
    42   25   26 1
    43   26   27 2
    44   26   40 1
@<TRIPOS>MOLECULE
CHEMBL336892
   52    55     0     0     0
SMALL
USER_CHARGES

@<TRIPOS>ATOM
      1 C1         -0.6010   -2.0239    2.4511 C.ar      1 <0>        -0.1367
      2 C2          0.0705   -1.8513    3.6433 C.ar      1 <0>        -0.0100
      3 C3          0.4940   -0.5908    4.0266 C.ar      1 <0>        -0.6760
      4 C4          0.2470    0.5049    3.2183 C.ar      1 <0>        -0.0164
      5 C5         -0.4235    0.3475    2.0234 C.ar      1 <0>        -0.1123
      6 C6         -0.8536   -0.9223    1.6297 C.ar      1 <0>         0.0522
      7 N1         -1.5186   -1.0860    0.4458 N.2       1 <0>        -0.1456
      8 N2         -1.0223   -1.8427   -0.4735 N.2       1 <0>        -0.0616
      9 C7          0.1122   -2.5336   -0.2387 C.2       1 <0>        -0.1099
     10 C8          0.3045   -3.9912   -0.3661 C.ar      1 <0>        -0.0657
     11 C9         -0.5287   -5.0406   -0.7321 C.ar      1 <0>         0.0085
     12 C10        -0.0250   -6.3398   -0.7519 C.ar      1 <0>        -0.1598
     13 C11         1.3110   -6.5768   -0.4043 C.ar      1 <0>        -0.0639
     14 C12         2.1291   -5.5457   -0.0449 C.ar      1 <0>        -0.1194
     15 C13         1.6442   -4.2401   -0.0190 C.ar      1 <0>         0.1345
     16 N3          2.2300   -3.0312    0.2970 N.pl3     1 <0>        -0.5743
     17 H1          3.1537   -2.9198    0.5713 H         1 <0>         0.4263
     18 C14         1.3331   -2.0164    0.1648 C.2       1 <0>         0.3031
     19 O1          1.5915   -0.7089    0.3943 O.3       1 <0>        -0.4525
     20 C15        -0.8990   -7.4653   -1.1383 C.2       1 <0>         0.5705
     21 O2         -2.0586   -7.2589   -1.4394 O.2       1 <0>        -0.5250
     22 N4         -0.4112   -8.7216   -1.1572 N.am      1 <0>        -0.7345
     23 C16        -1.2783   -9.8384   -1.5406 C.3       1 <0>         0.1216
     24 C17        -0.4844  -11.1448   -1.4794 C.3       1 <0>        -0.0761
     25 C18        -1.3764  -12.2937   -1.8739 C.2       1 <0>         0.0326
     26 C19        -2.2137  -12.9618   -1.0577 C.2       1 <0>         0.0421
     27 N5         -2.8274  -13.9201   -1.8184 N.pl3     1 <0>        -0.5090
     28 H2         -3.4868  -14.5626   -1.5128 H         1 <0>         0.4691
     29 C20        -2.3434  -13.8041   -3.0738 C.cat     1 <0>         0.3107
     30 N6         -1.4799  -12.8261   -3.1006 N.pl3     1 <0>        -0.4739
     31 S1          1.3512   -0.3799    5.5515 S.o2      1 <0>         2.7004
     32 O3          1.1610    0.9735    5.9405 O.2       1 <0>        -0.9518
     33 O4          0.9776   -1.4710    6.3817 O.2       1 <0>        -0.9557
     34 N7          2.9666   -0.5585    5.2338 N.pl3     1 <0>        -1.2493
     35 H3         -0.9270   -3.0089    2.1511 H         1 <0>         0.1399
     36 H4          0.2662   -2.7018    4.2795 H         1 <0>         0.1527
     37 H5          0.5797    1.4859    3.5241 H         1 <0>         0.1608
     38 H6         -0.6159    1.2035    1.3937 H         1 <0>         0.1553
     39 H7         -1.5580   -4.8514   -0.9987 H         1 <0>         0.1476
     40 H8          1.6971   -7.5853   -0.4206 H         1 <0>         0.1336
     41 H9          3.1571   -5.7428    0.2211 H         1 <0>         0.1381
     42 H10         1.5286   -0.4530    1.3247 H         1 <0>         0.3956
     43 H11         0.5141   -8.8862   -0.9169 H         1 <0>         0.4042
     44 H12        -2.1234   -9.8943   -0.8545 H         1 <0>         0.0805
     45 H13        -1.6440   -9.6826   -2.5555 H         1 <0>         0.0736
     46 H14         0.3607  -11.0889   -2.1655 H         1 <0>         0.1047
     47 H15        -0.1187  -11.3006   -0.4645 H         1 <0>         0.1207
     48 H16        -2.3705  -12.7773   -0.0052 H         1 <0>         0.2283
     49 H17        -2.6272  -14.4165   -3.9169 H         1 <0>         0.2678
     50 H18         3.2655   -0.7441    4.3298 H         1 <0>         0.4134
     51 H19         3.6140   -0.4775    5.9516 H         1 <0>         0.4250
     52 H20        -0.9888  -12.5318   -3.8837 H         1 <0>         0.4658
@<TRIPOS>BOND
     1    1    6 ar
     2    1    2 ar
     3    1   35 1
     4    2    3 ar
     5    2   36 1
     6    3    4 ar
     7    3   31 1
     8    4    5 ar
     9    4   37 1
    10    5    6 ar
    11    5   38 1
    12    6    7 1
    13    7    8 2
    14    8    9 1
    15    9   18 2
    16    9   10 1
    17   10   15 ar
    18   10   11 ar
    19   11   12 ar
    20   11   39 1
    21   12   13 ar
    22   12   20 1
    23   13   14 ar
    24   13   40 1
    25   14   15 ar
    26   14   41 1
    27   15   16 1
    28   16   17 1
    29   16   18 1
    30   18   19 1
    31   19   42 1
    32   20   21 2
    33   20   22 am
    34   22   23 1
    35   22   43 1
    36   23   24 1
    37   23   44 1
    38   23   45 1
    39   24   25 1
    40   24   46 1
    41   24   47 1
    42   25   30 1
    43   25   26 2
    44   26   27 1
    45   26   48 1
    46   27   28 1
    47   27   29 1
    48   29   30 2
    49   29   49 1
    50   30   52 1
    51   31   32 2
    52   31   33 2
    53   31   34 1
    54   34   50 1
    55   34   51 1
@<TRIPOS>MOLECULE
CHEMBL336892
   51    54     0     0     0
SMALL
USER_CHARGES

@<TRIPOS>ATOM
      1 C1         -0.6010   -2.0239    2.4511 C.ar      1 <0>        -0.1359
      2 C2          0.0705   -1.8513    3.6433 C.ar      1 <0>        -0.0094
      3 C3          0.4940   -0.5908    4.0266 C.ar      1 <0>        -0.6778
      4 C4          0.2470    0.5049    3.2183 C.ar      1 <0>        -0.0177
      5 C5         -0.4235    0.3475    2.0234 C.ar      1 <0>        -0.1139
      6 C6         -0.8536   -0.9223    1.6297 C.ar      1 <0>         0.0563
      7 N1         -1.5186   -1.0860    0.4458 N.2       1 <0>        -0.1520
      8 N2         -1.0223   -1.8427   -0.4735 N.2       1 <0>        -0.0567
      9 C7          0.1122   -2.5336   -0.2387 C.2       1 <0>        -0.1109
     10 C8          0.3045   -3.9912   -0.3661 C.ar      1 <0>        -0.0655
     11 C9         -0.5287   -5.0406   -0.7321 C.ar      1 <0>         0.0034
     12 C10        -0.0250   -6.3398   -0.7519 C.ar      1 <0>        -0.1490
     13 C11         1.3110   -6.5768   -0.4043 C.ar      1 <0>        -0.0616
     14 C12         2.1291   -5.5457   -0.0449 C.ar      1 <0>        -0.1213
     15 C13         1.6442   -4.2401   -0.0190 C.ar      1 <0>         0.1301
     16 N3          2.2300   -3.0312    0.2970 N.pl3     1 <0>        -0.5748
     17 H1          3.1537   -2.9198    0.5713 H         1 <0>         0.4246
     18 C14         1.3331   -2.0164    0.1648 C.2       1 <0>         0.2995
     19 O1          1.5915   -0.7089    0.3943 O.3       1 <0>        -0.4537
     20 C15        -0.8990   -7.4653   -1.1383 C.2       1 <0>         0.5628
     21 O2         -2.0586   -7.2589   -1.4394 O.2       1 <0>        -0.5282
     22 N4         -0.4112   -8.7216   -1.1572 N.am      1 <0>        -0.7287
     23 C16        -1.2783   -9.8384   -1.5406 C.3       1 <0>         0.1236
     24 C17        -0.4844  -11.1448   -1.4794 C.3       1 <0>        -0.0531
     25 C18        -1.3764  -12.2937   -1.8739 C.2       1 <0>        -0.0292
     26 C19        -1.6326  -12.7178   -3.1261 C.2       1 <0>        -0.0128
     27 N5         -2.4711  -13.7618   -3.0471 N.2       1 <0>        -0.4934
     28 H2         -2.0938  -13.0576   -0.0595 H         1 <0>         0.4198
     29 C20        -2.7441  -14.0006   -1.7935 C.2       1 <0>         0.1903
     30 N6         -2.0772  -13.1103   -1.0279 N.pl3     1 <0>        -0.5666
     31 S1          1.3512   -0.3799    5.5515 S.o2      1 <0>         2.7011
     32 O3          1.1610    0.9735    5.9405 O.2       1 <0>        -0.9545
     33 O4          0.9776   -1.4710    6.3817 O.2       1 <0>        -0.9562
     34 N7          2.9666   -0.5585    5.2338 N.pl3     1 <0>        -1.2495
     35 H3         -0.9270   -3.0089    2.1511 H         1 <0>         0.1411
     36 H4          0.2662   -2.7018    4.2795 H         1 <0>         0.1525
     37 H5          0.5797    1.4859    3.5241 H         1 <0>         0.1591
     38 H6         -0.6159    1.2035    1.3937 H         1 <0>         0.1541
     39 H7         -1.5580   -4.8514   -0.9987 H         1 <0>         0.1476
     40 H8          1.6971   -7.5853   -0.4206 H         1 <0>         0.1361
     41 H9          3.1571   -5.7428    0.2211 H         1 <0>         0.1368
     42 H10         1.5286   -0.4530    1.3247 H         1 <0>         0.3935
     43 H11         0.5141   -8.8862   -0.9169 H         1 <0>         0.4002
     44 H12        -2.1234   -9.8943   -0.8545 H         1 <0>         0.0691
     45 H13        -1.6440   -9.6826   -2.5555 H         1 <0>         0.0782
     46 H14         0.3607  -11.0889   -2.1655 H         1 <0>         0.0964
     47 H15        -0.1187  -11.3006   -0.4645 H         1 <0>         0.0780
     48 H16        -1.2331  -12.2920   -4.0346 H         1 <0>         0.1705
     49 H17        -3.3932  -14.7829   -1.4287 H         1 <0>         0.2097
     50 H18         3.2655   -0.7441    4.3298 H         1 <0>         0.4139
     51 H19         3.6140   -0.4775    5.9516 H         1 <0>         0.4241
@<TRIPOS>BOND
     1    1    6 ar
     2    1    2 ar
     3    1   35 1
     4    2    3 ar
     5    2   36 1
     6    3    4 ar
     7    3   31 1
     8    4    5 ar
     9    4   37 1
    10    5    6 ar
    11    5   38 1
    12    6    7 1
    13    7    8 2
    14    8    9 1
    15    9   18 2
    16    9   10 1
    17   10   15 ar
    18   10   11 ar
    19   11   12 ar
    20   11   39 1
    21   12   13 ar
    22   12   20 1
    23   13   14 ar
    24   13   40 1
    25   14   15 ar
    26   14   41 1
    27   15   16 1
    28   16   17 1
    29   16   18 1
    30   18   19 1
    31   19   42 1
    32   20   21 2
    33   20   22 am
    34   22   23 1
    35   22   43 1
    36   23   24 1
    37   23   44 1
    38   23   45 1
    39   24   46 1
    40   24   47 1
    41   24   25 1
    42   25   26 2
    43   25   30 1
    44   26   27 1
    45   26   48 1
    46   27   29 2
    47   28   30 1
    48   29   49 1
    49   29   30 1
    50   31   32 2
    51   31   33 2
    52   31   34 1
    53   34   50 1
    54   34   51 1
@<TRIPOS>MOLECULE
CHEMBL336892
   51    54     0     0     0
SMALL
USER_CHARGES

@<TRIPOS>ATOM
      1 C1         -0.6010   -2.0239    2.4511 C.ar      1 <0>        -0.1356
      2 C2          0.0705   -1.8513    3.6433 C.ar      1 <0>        -0.0091
      3 C3          0.4940   -0.5908    4.0266 C.ar      1 <0>        -0.6780
      4 C4          0.2470    0.5049    3.2183 C.ar      1 <0>        -0.0181
      5 C5         -0.4235    0.3475    2.0234 C.ar      1 <0>        -0.1143
      6 C6         -0.8536   -0.9223    1.6297 C.ar      1 <0>         0.0567
      7 N1         -1.5186   -1.0860    0.4458 N.2       1 <0>        -0.1530
      8 N2         -1.0223   -1.8427   -0.4735 N.2       1 <0>        -0.0564
      9 C7          0.1122   -2.5336   -0.2387 C.2       1 <0>        -0.1112
     10 C8          0.3045   -3.9912   -0.3661 C.ar      1 <0>        -0.0654
     11 C9         -0.5287   -5.0406   -0.7321 C.ar      1 <0>         0.0020
     12 C10        -0.0250   -6.3398   -0.7519 C.ar      1 <0>        -0.1465
     13 C11         1.3110   -6.5768   -0.4043 C.ar      1 <0>        -0.0613
     14 C12         2.1291   -5.5457   -0.0449 C.ar      1 <0>        -0.1219
     15 C13         1.6442   -4.2401   -0.0190 C.ar      1 <0>         0.1288
     16 N3          2.2300   -3.0312    0.2970 N.pl3     1 <0>        -0.5750
     17 H1          3.1537   -2.9198    0.5713 H         1 <0>         0.4242
     18 C14         1.3331   -2.0164    0.1648 C.2       1 <0>         0.2986
     19 O1          1.5915   -0.7089    0.3943 O.3       1 <0>        -0.4541
     20 C15        -0.8990   -7.4653   -1.1383 C.2       1 <0>         0.5611
     21 O2         -2.0586   -7.2589   -1.4394 O.2       1 <0>        -0.5297
     22 N4         -0.4112   -8.7216   -1.1572 N.am      1 <0>        -0.7276
     23 C16        -1.2783   -9.8384   -1.5406 C.3       1 <0>         0.1275
     24 C17        -0.4844  -11.1448   -1.4794 C.3       1 <0>        -0.0432
     25 C18        -1.3764  -12.2937   -1.8739 C.2       1 <0>         0.0009
     26 C19        -1.1271  -13.1915   -2.8461 C.2       1 <0>        -0.0485
     27 N5         -2.1880  -14.0561   -2.8683 N.pl3     1 <0>        -0.5701
     28 H2         -2.3003  -14.8144   -3.4626 H         1 <0>         0.4221
     29 C20        -3.0494  -13.6562   -1.9082 C.2       1 <0>         0.1892
     30 N6         -2.5550  -12.6045   -1.3143 N.2       1 <0>        -0.4871
     31 S1          1.3512   -0.3799    5.5515 S.o2      1 <0>         2.7011
     32 O3          1.1610    0.9735    5.9405 O.2       1 <0>        -0.9549
     33 O4          0.9776   -1.4710    6.3817 O.2       1 <0>        -0.9560
     34 N7          2.9666   -0.5585    5.2338 N.pl3     1 <0>        -1.2495
     35 H3         -0.9270   -3.0089    2.1511 H         1 <0>         0.1416
     36 H4          0.2662   -2.7018    4.2795 H         1 <0>         0.1527
     37 H5          0.5797    1.4859    3.5241 H         1 <0>         0.1588
     38 H6         -0.6159    1.2035    1.3937 H         1 <0>         0.1537
     39 H7         -1.5580   -4.8514   -0.9987 H         1 <0>         0.1475
     40 H8          1.6971   -7.5853   -0.4206 H         1 <0>         0.1368
     41 H9          3.1571   -5.7428    0.2211 H         1 <0>         0.1363
     42 H10         1.5286   -0.4530    1.3247 H         1 <0>         0.3932
     43 H11         0.5141   -8.8862   -0.9169 H         1 <0>         0.3986
     44 H12        -2.1234   -9.8943   -0.8545 H         1 <0>         0.0795
     45 H13        -1.6440   -9.6826   -2.5555 H         1 <0>         0.0685
     46 H14         0.3607  -11.0889   -2.1655 H         1 <0>         0.0811
     47 H15        -0.1187  -11.3006   -0.4645 H         1 <0>         0.0817
     48 H16        -0.2573  -13.2232   -3.4856 H         1 <0>         0.1770
     49 H17        -3.9897  -14.1305   -1.6688 H         1 <0>         0.2094
     50 H18         3.2655   -0.7441    4.3298 H         1 <0>         0.4139
     51 H19         3.6140   -0.4775    5.9516 H         1 <0>         0.4239
@<TRIPOS>BOND
     1    1    6 ar
     2    1    2 ar
     3    1   35 1
     4    2    3 ar
     5    2   36 1
     6    3    4 ar
     7    3   31 1
     8    4    5 ar
     9    4   37 1
    10    5    6 ar
    11    5   38 1
    12    6    7 1
    13    7    8 2
    14    8    9 1
    15    9   18 2
    16    9   10 1
    17   10   15 ar
    18   10   11 ar
    19   11   12 ar
    20   11   39 1
    21   12   13 ar
    22   12   20 1
    23   13   14 ar
    24   13   40 1
    25   14   15 ar
    26   14   41 1
    27   15   16 1
    28   16   17 1
    29   16   18 1
    30   18   19 1
    31   19   42 1
    32   20   21 2
    33   20   22 am
    34   22   23 1
    35   22   43 1
    36   23   24 1
    37   23   44 1
    38   23   45 1
    39   24   25 1
    40   24   46 1
    41   24   47 1
    42   25   30 1
    43   25   26 2
    44   26   27 1
    45   26   48 1
    46   27   28 1
    47   27   29 1
    48   29   30 2
    49   29   49 1
    50   31   32 2
    51   31   33 2
    52   31   34 1
    53   34   50 1
    54   34   51 1
@<TRIPOS>MOLECULE
CHEMBL336892
   52    55     0     0     0
SMALL
USER_CHARGES

@<TRIPOS>ATOM
      1 C1         -0.0169    1.3930    0.0097 C.ar      1 <0>        -0.0934
      2 C2          1.1700    2.0954    0.0021 C.ar      1 <0>        -0.0166
      3 C3          2.3776    1.4198   -0.0130 C.ar      1 <0>        -0.6686
      4 C4          2.4041    0.0363   -0.0212 C.ar      1 <0>        -0.0162
      5 C5          1.2251   -0.6794   -0.0137 C.ar      1 <0>        -0.1393
      6 C6          0.0021   -0.0041    0.0020 C.ar      1 <0>         0.1235
      7 N1         -1.1710   -0.7072    0.0099 N.2       1 <0>        -0.2585
      8 N2         -1.1500   -1.9970    0.0028 N.2       1 <0>        -0.1484
      9 C7         -2.3070   -2.6905    0.0105 C.2       1 <0>        -0.0376
     10 C8         -2.4603   -4.1582    0.0102 C.ar      1 <0>        -0.0587
     11 C9         -1.5612   -5.2170    0.0019 C.ar      1 <0>         0.0090
     12 C10        -2.0431   -6.5245    0.0043 C.ar      1 <0>        -0.1593
     13 C11        -3.4237   -6.7605    0.0150 C.ar      1 <0>        -0.0672
     14 C12        -4.3065   -5.7203    0.0231 C.ar      1 <0>        -0.1173
     15 C13        -3.8443   -4.4062    0.0209 C.ar      1 <0>         0.1277
     16 N3         -4.4915   -3.1873    0.0274 N.pl3     1 <0>        -0.5751
     17 H1         -5.4548   -3.0733    0.0354 H         1 <0>         0.4265
     18 C14        -3.5903   -2.1677    0.0266 C.2       1 <0>         0.3461
     19 O1         -3.8987   -0.8510    0.0366 O.3       1 <0>        -0.4402
     20 C15        -1.0993   -7.6599   -0.0050 C.2       1 <0>         0.5707
     21 O2          0.0989   -7.4544   -0.0146 O.2       1 <0>        -0.5258
     22 N4         -1.5661   -8.9242   -0.0026 N.am      1 <0>        -0.7347
     23 C16        -0.6297  -10.0509   -0.0118 C.3       1 <0>         0.1217
     24 C17        -1.4130  -11.3651   -0.0069 C.3       1 <0>        -0.0763
     25 C18        -0.4497  -12.5240   -0.0163 C.2       1 <0>         0.0328
     26 C19         0.1247  -13.0668   -1.1068 C.2       1 <0>         0.0420
     27 N5          0.9234  -14.0877   -0.6670 N.pl3     1 <0>        -0.5090
     28 H2          1.4695  -14.6697   -1.2183 H         1 <0>         0.4691
     29 C20         0.8093  -14.1332    0.6779 C.cat     1 <0>         0.3104
     30 N6         -0.0097  -13.1920    1.0604 N.pl3     1 <0>        -0.4739
     31 S1          3.8889    2.3257   -0.0226 S.o2      1 <0>         2.7016
     32 O3          4.8722    1.4693   -0.5874 O.2       1 <0>        -0.9616
     33 O4          3.5919    3.6056   -0.5637 O.2       1 <0>        -0.9598
     34 N7          4.3240    2.5689    1.5566 N.pl3     1 <0>        -1.2495
     35 H3         -0.9586    1.9215    0.0260 H         1 <0>         0.1457
     36 H4          1.1569    3.1753    0.0077 H         1 <0>         0.1523
     37 H5          3.3502   -0.4844   -0.0337 H         1 <0>         0.1466
     38 H6          1.2473   -1.7591   -0.0205 H         1 <0>         0.1447
     39 H7         -0.4978   -5.0284   -0.0067 H         1 <0>         0.1479
     40 H8         -3.7928   -7.7755    0.0164 H         1 <0>         0.1330
     41 H9         -5.3685   -5.9166    0.0310 H         1 <0>         0.1379
     42 H10        -3.9976   -0.4635   -0.8438 H         1 <0>         0.4133
     43 H11        -2.5222   -9.0883    0.0051 H         1 <0>         0.4043
     44 H12        -0.0097  -10.0007   -0.9069 H         1 <0>         0.0805
     45 H13         0.0050  -10.0029    0.8730 H         1 <0>         0.0732
     46 H14        -2.0330  -11.4153    0.8882 H         1 <0>         0.1047
     47 H15        -2.0478  -11.4131   -0.8917 H         1 <0>         0.1208
     48 H16        -0.0179  -12.7565   -2.1314 H         1 <0>         0.2284
     49 H17         1.3152  -14.8305    1.3293 H         1 <0>         0.2677
     50 H18         3.7655    2.2262    2.2719 H         1 <0>         0.4169
     51 H19         5.1373    3.0540    1.7664 H         1 <0>         0.4224
     52 H20        -0.2619  -13.0059    1.9784 H         1 <0>         0.4657
@<TRIPOS>BOND
     1    1    6 ar
     2    1    2 ar
     3    1   35 1
     4    2    3 ar
     5    2   36 1
     6    3    4 ar
     7    3   31 1
     8    4    5 ar
     9    4   37 1
    10    5    6 ar
    11    5   38 1
    12    6    7 1
    13    7    8 2
    14    8    9 1
    15    9   18 2
    16    9   10 1
    17   10   15 ar
    18   10   11 ar
    19   11   12 ar
    20   11   39 1
    21   12   13 ar
    22   12   20 1
    23   13   14 ar
    24   13   40 1
    25   14   15 ar
    26   14   41 1
    27   15   16 1
    28   16   17 1
    29   16   18 1
    30   18   19 1
    31   19   42 1
    32   20   21 2
    33   20   22 am
    34   22   23 1
    35   22   43 1
    36   23   24 1
    37   23   44 1
    38   23   45 1
    39   24   25 1
    40   24   46 1
    41   24   47 1
    42   25   30 1
    43   25   26 2
    44   26   27 1
    45   26   48 1
    46   27   28 1
    47   27   29 1
    48   29   30 2
    49   29   49 1
    50   30   52 1
    51   31   32 2
    52   31   33 2
    53   31   34 1
    54   34   50 1
    55   34   51 1
@<TRIPOS>MOLECULE
CHEMBL336892
   51    54     0     0     0
SMALL
USER_CHARGES

@<TRIPOS>ATOM
      1 C1         -0.0169    1.3930    0.0097 C.ar      1 <0>        -0.0974
      2 C2          1.1700    2.0954    0.0021 C.ar      1 <0>        -0.0171
      3 C3          2.3776    1.4198   -0.0130 C.ar      1 <0>        -0.6722
      4 C4          2.4041    0.0363   -0.0212 C.ar      1 <0>        -0.0146
      5 C5          1.2251   -0.6794   -0.0137 C.ar      1 <0>        -0.1412
      6 C6          0.0021   -0.0041    0.0020 C.ar      1 <0>         0.1288
      7 N1         -1.1710   -0.7072    0.0099 N.2       1 <0>        -0.2678
      8 N2         -1.1500   -1.9970    0.0028 N.2       1 <0>        -0.1424
      9 C7         -2.3070   -2.6905    0.0105 C.2       1 <0>        -0.0380
     10 C8         -2.4603   -4.1582    0.0102 C.ar      1 <0>        -0.0582
     11 C9         -1.5612   -5.2170    0.0019 C.ar      1 <0>         0.0039
     12 C10        -2.0431   -6.5245    0.0043 C.ar      1 <0>        -0.1479
     13 C11        -3.4237   -6.7605    0.0150 C.ar      1 <0>        -0.0653
     14 C12        -4.3065   -5.7203    0.0231 C.ar      1 <0>        -0.1184
     15 C13        -3.8443   -4.4062    0.0209 C.ar      1 <0>         0.1222
     16 N3         -4.4915   -3.1873    0.0274 N.pl3     1 <0>        -0.5745
     17 H1         -5.4548   -3.0733    0.0354 H         1 <0>         0.4249
     18 C14        -3.5903   -2.1677    0.0266 C.2       1 <0>         0.3456
     19 O1         -3.8987   -0.8510    0.0366 O.3       1 <0>        -0.4413
     20 C15        -1.0993   -7.6599   -0.0050 C.2       1 <0>         0.5630
     21 O2          0.0989   -7.4544   -0.0146 O.2       1 <0>        -0.5289
     22 N4         -1.5661   -8.9242   -0.0026 N.am      1 <0>        -0.7290
     23 C16        -0.6297  -10.0509   -0.0118 C.3       1 <0>         0.1237
     24 C17        -1.4130  -11.3651   -0.0069 C.3       1 <0>        -0.0532
     25 C18        -0.4497  -12.5240   -0.0163 C.2       1 <0>        -0.0289
     26 C19         0.1444  -13.0828    1.0553 C.2       1 <0>        -0.0130
     27 N5          0.9245  -14.0842    0.6221 N.2       1 <0>        -0.4934
     28 H2         -0.2692  -13.0496   -2.0366 H         1 <0>         0.4198
     29 C20         0.8363  -14.1673   -0.6772 C.2       1 <0>         0.1902
     30 N6         -0.0152  -13.2149   -1.1152 N.pl3     1 <0>        -0.5667
     31 S1          3.8889    2.3257   -0.0226 S.o2      1 <0>         2.7020
     32 O3          4.8722    1.4693   -0.5874 O.2       1 <0>        -0.9619
     33 O4          3.5919    3.6056   -0.5637 O.2       1 <0>        -0.9624
     34 N7          4.3240    2.5689    1.5566 N.pl3     1 <0>        -1.2498
     35 H3         -0.9586    1.9215    0.0260 H         1 <0>         0.1444
     36 H4          1.1569    3.1753    0.0077 H         1 <0>         0.1505
     37 H5          3.3502   -0.4844   -0.0337 H         1 <0>         0.1464
     38 H6          1.2473   -1.7591   -0.0205 H         1 <0>         0.1458
     39 H7         -0.4978   -5.0284   -0.0067 H         1 <0>         0.1481
     40 H8         -3.7928   -7.7755    0.0164 H         1 <0>         0.1357
     41 H9         -5.3685   -5.9166    0.0310 H         1 <0>         0.1367
     42 H10        -3.9976   -0.4635   -0.8438 H         1 <0>         0.4113
     43 H11        -2.5222   -9.0883    0.0051 H         1 <0>         0.4003
     44 H12        -0.0097  -10.0007   -0.9069 H         1 <0>         0.0691
     45 H13         0.0050  -10.0029    0.8730 H         1 <0>         0.0779
     46 H14        -2.0330  -11.4153    0.8882 H         1 <0>         0.0963
     47 H15        -2.0478  -11.4131   -0.8917 H         1 <0>         0.0781
     48 H16         0.0155  -12.7779    2.0833 H         1 <0>         0.1704
     49 H17         1.3555  -14.8815   -1.2990 H         1 <0>         0.2097
     50 H18         3.7655    2.2262    2.2719 H         1 <0>         0.4171
     51 H19         5.1373    3.0540    1.7664 H         1 <0>         0.4215
@<TRIPOS>BOND
     1    1    6 ar
     2    1    2 ar
     3    1   35 1
     4    2    3 ar
     5    2   36 1
     6    3    4 ar
     7    3   31 1
     8    4    5 ar
     9    4   37 1
    10    5    6 ar
    11    5   38 1
    12    6    7 1
    13    7    8 2
    14    8    9 1
    15    9   18 2
    16    9   10 1
    17   10   15 ar
    18   10   11 ar
    19   11   12 ar
    20   11   39 1
    21   12   13 ar
    22   12   20 1
    23   13   14 ar
    24   13   40 1
    25   14   15 ar
    26   14   41 1
    27   15   16 1
    28   16   17 1
    29   16   18 1
    30   18   19 1
    31   19   42 1
    32   20   21 2
    33   20   22 am
    34   22   23 1
    35   22   43 1
    36   23   24 1
    37   23   44 1
    38   23   45 1
    39   24   46 1
    40   24   47 1
    41   24   25 1
    42   25   26 2
    43   25   30 1
    44   26   27 1
    45   26   48 1
    46   27   29 2
    47   28   30 1
    48   29   49 1
    49   29   30 1
    50   31   32 2
    51   31   33 2
    52   31   34 1
    53   34   50 1
    54   34   51 1
@<TRIPOS>MOLECULE
CHEMBL336892
   51    54     0     0     0
SMALL
USER_CHARGES

@<TRIPOS>ATOM
      1 C1         -0.0169    1.3930    0.0097 C.ar      1 <0>        -0.0982
      2 C2          1.1700    2.0954    0.0021 C.ar      1 <0>        -0.0172
      3 C3          2.3776    1.4198   -0.0130 C.ar      1 <0>        -0.6729
      4 C4          2.4041    0.0363   -0.0212 C.ar      1 <0>        -0.0144
      5 C5          1.2251   -0.6794   -0.0137 C.ar      1 <0>        -0.1416
      6 C6          0.0021   -0.0041    0.0020 C.ar      1 <0>         0.1299
      7 N1         -1.1710   -0.7072    0.0099 N.2       1 <0>        -0.2697
      8 N2         -1.1500   -1.9970    0.0028 N.2       1 <0>        -0.1412
      9 C7         -2.3070   -2.6905    0.0105 C.2       1 <0>        -0.0382
     10 C8         -2.4603   -4.1582    0.0102 C.ar      1 <0>        -0.0581
     11 C9         -1.5612   -5.2170    0.0019 C.ar      1 <0>         0.0025
     12 C10        -2.0431   -6.5245    0.0043 C.ar      1 <0>        -0.1453
     13 C11        -3.4237   -6.7605    0.0150 C.ar      1 <0>        -0.0650
     14 C12        -4.3065   -5.7203    0.0231 C.ar      1 <0>        -0.1188
     15 C13        -3.8443   -4.4062    0.0209 C.ar      1 <0>         0.1207
     16 N3         -4.4915   -3.1873    0.0274 N.pl3     1 <0>        -0.5745
     17 H1         -5.4548   -3.0733    0.0354 H         1 <0>         0.4246
     18 C14        -3.5903   -2.1677    0.0266 C.2       1 <0>         0.3455
     19 O1         -3.8987   -0.8510    0.0366 O.3       1 <0>        -0.4417
     20 C15        -1.0993   -7.6599   -0.0050 C.2       1 <0>         0.5612
     21 O2          0.0989   -7.4544   -0.0146 O.2       1 <0>        -0.5303
     22 N4         -1.5661   -8.9242   -0.0026 N.am      1 <0>        -0.7278
     23 C16        -0.6297  -10.0509   -0.0118 C.3       1 <0>         0.1275
     24 C17        -1.4130  -11.3651   -0.0069 C.3       1 <0>        -0.0433
     25 C18        -0.4497  -12.5240   -0.0163 C.2       1 <0>         0.0009
     26 C19        -0.4205  -13.5361    0.8717 C.2       1 <0>        -0.0487
     27 N5          0.6020  -14.3643    0.4948 N.pl3     1 <0>        -0.5702
     28 H2          0.8733  -15.1828    0.9391 H         1 <0>         0.4221
     29 C20         1.1624  -13.8292   -0.6112 C.2       1 <0>         0.1891
     30 N6          0.5251  -12.7314   -0.9139 N.2       1 <0>        -0.4869
     31 S1          3.8889    2.3257   -0.0226 S.o2      1 <0>         2.7020
     32 O3          4.8722    1.4693   -0.5874 O.2       1 <0>        -0.9620
     33 O4          3.5919    3.6056   -0.5637 O.2       1 <0>        -0.9627
     34 N7          4.3240    2.5689    1.5566 N.pl3     1 <0>        -1.2499
     35 H3         -0.9586    1.9215    0.0260 H         1 <0>         0.1442
     36 H4          1.1569    3.1753    0.0077 H         1 <0>         0.1502
     37 H5          3.3502   -0.4844   -0.0337 H         1 <0>         0.1463
     38 H6          1.2473   -1.7591   -0.0205 H         1 <0>         0.1460
     39 H7         -0.4978   -5.0284   -0.0067 H         1 <0>         0.1480
     40 H8         -3.7928   -7.7755    0.0164 H         1 <0>         0.1363
     41 H9         -5.3685   -5.9166    0.0310 H         1 <0>         0.1363
     42 H10        -3.9976   -0.4635   -0.8438 H         1 <0>         0.4110
     43 H11        -2.5222   -9.0883    0.0051 H         1 <0>         0.3987
     44 H12        -0.0097  -10.0007   -0.9069 H         1 <0>         0.0795
     45 H13         0.0050  -10.0029    0.8730 H         1 <0>         0.0682
     46 H14        -2.0330  -11.4153    0.8882 H         1 <0>         0.0811
     47 H15        -2.0478  -11.4131   -0.8917 H         1 <0>         0.0818
     48 H16        -1.0774  -13.6685    1.7187 H         1 <0>         0.1769
     49 H17         1.9972  -14.2434   -1.1572 H         1 <0>         0.2093
     50 H18         3.7655    2.2262    2.2719 H         1 <0>         0.4171
     51 H19         5.1373    3.0540    1.7664 H         1 <0>         0.4213
@<TRIPOS>BOND
     1    1    6 ar
     2    1    2 ar
     3    1   35 1
     4    2    3 ar
     5    2   36 1
     6    3    4 ar
     7    3   31 1
     8    4    5 ar
     9    4   37 1
    10    5    6 ar
    11    5   38 1
    12    6    7 1
    13    7    8 2
    14    8    9 1
    15    9   18 2
    16    9   10 1
    17   10   15 ar
    18   10   11 ar
    19   11   12 ar
    20   11   39 1
    21   12   13 ar
    22   12   20 1
    23   13   14 ar
    24   13   40 1
    25   14   15 ar
    26   14   41 1
    27   15   16 1
    28   16   17 1
    29   16   18 1
    30   18   19 1
    31   19   42 1
    32   20   21 2
    33   20   22 am
    34   22   23 1
    35   22   43 1
    36   23   24 1
    37   23   44 1
    38   23   45 1
    39   24   25 1
    40   24   46 1
    41   24   47 1
    42   25   30 1
    43   25   26 2
    44   26   27 1
    45   26   48 1
    46   27   28 1
    47   27   29 1
    48   29   30 2
    49   29   49 1
    50   31   32 2
    51   31   33 2
    52   31   34 1
    53   34   50 1
    54   34   51 1
@<TRIPOS>MOLECULE
CHEMBL308979
   62    68     0     0     0
SMALL
USER_CHARGES

@<TRIPOS>ATOM
      1 C1         -0.0178    1.4617    0.0101 C.3       1 <0>         0.0652
      2 N1          0.0021   -0.0041    0.0020 N.pl3     1 <0>        -0.4469
      3 C2          0.0249   -0.7439   -1.1505 C.2       1 <0>         0.0503
      4 C3          0.1836   -2.0410   -0.8484 C.2       1 <0>        -0.1853
      5 C4          0.2475   -2.1280    0.6100 C.ar      1 <0>        -0.1135
      6 C5          0.0236   -0.8274    1.0951 C.ar      1 <0>         0.0991
      7 C6         -0.1568   -0.6670    2.4822 C.ar      1 <0>         0.0563
      8 C7          0.3262   -1.6905    3.3445 C.ar      1 <0>        -0.0210
      9 C8          0.5952   -2.9707    2.8272 C.ar      1 <0>        -0.1548
     10 C9          0.5131   -3.1909    1.4927 C.ar      1 <0>        -0.0314
     11 C10         0.5390   -1.4128    4.7118 C.ar      1 <0>         0.1765
     12 C11         0.0582   -0.2100    5.2473 C.ar      1 <0>        -0.0602
     13 C12         0.4360   -0.2076    6.6705 C.ar      1 <0>        -0.0909
     14 C13         0.2517    0.7038    7.7086 C.ar      1 <0>        -0.0374
     15 C14         0.7266    0.4107    8.9683 C.ar      1 <0>        -0.1418
     16 C15         1.3859   -0.7862    9.2033 C.ar      1 <0>        -0.0647
     17 C16         1.5762   -1.6963    8.1856 C.ar      1 <0>        -0.1281
     18 C17         1.1040   -1.4198    6.9060 C.ar      1 <0>         0.1431
     19 N2          1.1470   -2.1262    5.7180 N.pl3     1 <0>        -0.5958
     20 H1          1.5486   -3.0028    5.6056 H         1 <0>         0.4167
     21 C18         2.2959   -2.9904    8.4638 C.3       1 <0>        -0.0948
     22 C19         3.7769   -2.8361    8.1120 C.3       1 <0>        -0.0096
     23 N3          4.4786   -4.0979    8.3832 N.4       1 <0>        -0.3864
     24 C20         4.4691   -4.3701    9.8363 C.3       1 <0>        -0.0093
     25 C21         5.8425   -5.0260   10.1249 C.3       1 <0>        -0.1363
     26 C22         6.7740   -4.2368    9.1677 C.3       1 <0>        -0.1285
     27 C23         5.8791   -3.9932    7.9343 C.3       1 <0>         0.0238
     28 H2          6.0660   -2.9978    7.5314 H         1 <0>         0.1489
     29 C24         6.1642   -5.0519    6.8672 C.3       1 <0>         0.0547
     30 O1          6.0540   -6.3537    7.4463 O.3       1 <0>        -0.5737
     31 C25        -0.6531    0.6860    4.4365 C.ar      1 <0>        -0.0732
     32 C26        -0.8250    0.4244    3.0670 C.ar      1 <0>        -0.1545
     33 C27        -1.8171    1.4133    2.6133 C.2       1 <0>         0.5783
     34 O2         -2.4322    1.3933    1.5661 O.2       1 <0>        -0.4499
     35 N4         -1.9715    2.3444    3.5739 N.am      1 <0>        -0.6832
     36 C28        -1.3081    1.9866    4.6870 C.2       1 <0>         0.5781
     37 O3         -1.2559    2.6241    5.7186 O.2       1 <0>        -0.4527
     38 H3          1.0048    1.8390    0.0023 H         1 <0>         0.0771
     39 H4         -0.5450    1.8228   -0.8730 H         1 <0>         0.0933
     40 H5         -0.5280    1.8133    0.9069 H         1 <0>         0.0793
     41 H6         -0.0719   -0.3393   -2.1462 H         1 <0>         0.1781
     42 H7          0.2513   -2.8635   -1.5457 H         1 <0>         0.1562
     43 H8          0.8717   -3.7763    3.4904 H         1 <0>         0.1259
     44 H9          0.6521   -4.1885    1.1039 H         1 <0>         0.1333
     45 H10        -0.2632    1.6356    7.5280 H         1 <0>         0.1456
     46 H11         0.5837    1.1155    9.7737 H         1 <0>         0.1373
     47 H12         1.7528   -1.0080   10.1944 H         1 <0>         0.1336
     48 H13         2.1976   -3.2410    9.5200 H         1 <0>         0.1022
     49 H14         1.8598   -3.7858    7.8594 H         1 <0>         0.0864
     50 H15         3.8753   -2.5855    7.0558 H         1 <0>         0.1242
     51 H16         4.2130   -2.0407    8.7163 H         1 <0>         0.1361
     52 H17         4.3676   -3.4402   10.3959 H         1 <0>         0.1315
     53 H18         3.6605   -5.0560   10.0887 H         1 <0>         0.1332
     54 H19         6.1351   -4.8781   11.1645 H         1 <0>         0.1127
     55 H20         5.8298   -6.0860    9.8715 H         1 <0>         0.1069
     56 H21         7.0765   -3.2910    9.6172 H         1 <0>         0.0973
     57 H22         7.6458   -4.8336    8.8995 H         1 <0>         0.1130
     58 H23         5.4433   -4.9531    6.0556 H         1 <0>         0.0690
     59 H24         7.1722   -4.9120    6.4767 H         1 <0>         0.0947
     60 H25         6.2224   -7.0758    6.8256 H         1 <0>         0.4066
     61 H26        -2.4894    3.1574    3.4775 H         1 <0>         0.4351
     62 H27         4.0212   -4.8534    7.8952 H         1 <0>         0.4245
@<TRIPOS>BOND
     1    1    2 1
     2    1   38 1
     3    1   39 1
     4    1   40 1
     5    2    6 1
     6    2    3 1
     7    3    4 2
     8    3   41 1
     9    4    5 1
    10    4   42 1
    11    5   10 ar
    12    5    6 ar
    13    6    7 ar
    14    7   32 ar
    15    7    8 ar
    16    8    9 ar
    17    8   11 ar
    18    9   10 ar
    19    9   43 1
    20   10   44 1
    21   11   19 1
    22   11   12 ar
    23   12   13 1
    24   12   31 ar
    25   13   18 ar
    26   13   14 ar
    27   14   15 ar
    28   14   45 1
    29   15   16 ar
    30   15   46 1
    31   16   17 ar
    32   16   47 1
    33   17   18 ar
    34   17   21 1
    35   18   19 1
    36   19   20 1
    37   21   22 1
    38   21   48 1
    39   21   49 1
    40   22   23 1
    41   22   50 1
    42   22   51 1
    43   23   27 1
    44   23   24 1
    45   23   62 1
    46   24   25 1
    47   24   52 1
    48   24   53 1
    49   25   26 1
    50   25   54 1
    51   25   55 1
    52   26   27 1
    53   26   56 1
    54   26   57 1
    55   27   28 1
    56   27   29 1
    57   29   30 1
    58   29   58 1
    59   29   59 1
    60   30   60 1
    61   31   36 1
    62   31   32 ar
    63   32   33 1
    64   33   34 2
    65   33   35 am
    66   35   36 am
    67   35   61 1
    68   36   37 2
@<TRIPOS>MOLECULE
CHEMBL457979
   58    61     0     0     0
SMALL
USER_CHARGES

@<TRIPOS>ATOM
      1 C1         -0.3035    1.5916   -0.2006 C.3       1 <0>        -0.1416
      2 C2         -0.2204    0.0919   -0.0785 C.cat     1 <0>         0.3300
      3 N1         -0.3374   -0.7570   -1.0651 N.pl3     1 <0>        -0.4778
      4 C3         -0.2111   -2.0037   -0.6007 C.2       1 <0>         0.0663
      5 C4         -0.0049   -1.9296    0.7438 C.2       1 <0>         0.0808
      6 N2         -0.0076   -0.5897    1.0654 N.pl3     1 <0>        -0.3913
      7 C5          0.1821   -0.0142    2.3992 C.3       1 <0>         0.1096
      8 C6          1.6270   -0.2375    2.8502 C.3       1 <0>        -0.1882
      9 C7         -0.1118    1.4866    2.3536 C.3       1 <0>        -0.1960
     10 C8          0.1887   -3.0612    1.6722 C.ar      1 <0>         0.2671
     11 C9          0.2594   -2.8438    3.0541 C.ar      1 <0>        -0.2821
     12 C10         0.4409   -3.9342    3.8831 C.ar      1 <0>         0.2146
     13 N3          0.5419   -5.1434    3.3517 N.ar      1 <0>        -0.5355
     14 C11         0.4716   -5.3214    2.0403 C.ar      1 <0>         0.5804
     15 N4          0.2934   -4.3070    1.2090 N.ar      1 <0>        -0.5450
     16 N5          0.5825   -6.6032    1.5266 N.pl3     1 <0>        -0.6308
     17 C12         0.6504   -7.6995    2.3916 C.ar      1 <0>         0.2085
     18 C13        -0.0655   -7.6924    3.5819 C.ar      1 <0>        -0.1339
     19 C14         0.0033   -8.7771    4.4338 C.ar      1 <0>        -0.0014
     20 C15         0.7838   -9.8697    4.1029 C.ar      1 <0>        -0.6739
     21 C16         1.4982   -9.8799    2.9189 C.ar      1 <0>         0.0017
     22 C17         1.4292   -8.8007    2.0598 C.ar      1 <0>        -0.1615
     23 S1          0.8688  -11.2516    5.1927 S.o2      1 <0>         2.4909
     24 O1          2.1265  -11.8532    4.9180 O.2       1 <0>        -0.9274
     25 O2          0.5870  -10.7171    6.4788 O.2       1 <0>        -0.9277
     26 C18        -0.4767  -12.3467    4.6627 C.3       1 <0>        -0.5571
     27 C19        -0.4981  -13.5750    5.5357 C.ar      1 <0>        -0.1033
     28 C20         0.2429  -14.6871    5.1823 C.ar      1 <0>        -0.1026
     29 C21         0.2232  -15.8138    5.9830 C.ar      1 <0>        -0.1168
     30 C22        -0.5371  -15.8281    7.1373 C.ar      1 <0>        -0.1050
     31 C23        -1.2774  -14.7156    7.4912 C.ar      1 <0>        -0.1172
     32 C24        -1.2544  -13.5875    6.6927 C.ar      1 <0>        -0.1028
     33 H1          0.7025    2.0103   -0.2277 H         1 <0>         0.1256
     34 H2         -0.8306    1.8528   -1.1182 H         1 <0>         0.1149
     35 H3         -0.8426    1.9966    0.6559 H         1 <0>         0.1416
     36 H4         -0.2638   -2.9091   -1.1870 H         1 <0>         0.2326
     37 H5         -0.4967   -0.4961    3.1028 H         1 <0>         0.1326
     38 H6          2.3079    0.1722    2.1040 H         1 <0>         0.0772
     39 H7          1.7910    0.2622    3.8049 H         1 <0>         0.1069
     40 H8          1.8115   -1.3058    2.9628 H         1 <0>         0.0828
     41 H9          0.5231    1.9586    1.6037 H         1 <0>         0.0925
     42 H10        -1.1588    1.6441    2.0945 H         1 <0>         0.0864
     43 H11         0.0910    1.9264    3.3301 H         1 <0>         0.1082
     44 H12         0.1744   -1.8474    3.4620 H         1 <0>         0.1600
     45 H13         0.5001   -3.8020    4.9534 H         1 <0>         0.1877
     46 H14         0.6132   -6.7400    0.5668 H         1 <0>         0.4308
     47 H15        -0.6750   -6.8393    3.8410 H         1 <0>         0.1411
     48 H16        -0.5528   -8.7720    5.3596 H         1 <0>         0.1482
     49 H17         2.1074  -10.7344    2.6638 H         1 <0>         0.1505
     50 H18         1.9839   -8.8112    1.1331 H         1 <0>         0.1392
     51 H19        -1.4281  -11.8221    4.7503 H         1 <0>         0.1444
     52 H20        -0.3183  -12.6411    3.6252 H         1 <0>         0.1449
     53 H21         0.8369  -14.6759    4.2804 H         1 <0>         0.1315
     54 H22         0.8016  -16.6829    5.7065 H         1 <0>         0.1313
     55 H23        -0.5530  -16.7086    7.7626 H         1 <0>         0.1297
     56 H24        -1.8717  -14.7270    8.3929 H         1 <0>         0.1311
     57 H25        -1.8298  -12.7170    6.9712 H         1 <0>         0.1311
     58 H26        -0.4926   -0.5188   -1.9925 H         1 <0>         0.4663
@<TRIPOS>BOND
     1    1    2 1
     2    1   33 1
     3    1   34 1
     4    1   35 1
     5    2    6 1
     6    2    3 2
     7    3    4 1
     8    3   58 1
     9    4    5 2
    10    4   36 1
    11    5    6 1
    12    5   10 1
    13    6    7 1
    14    7    8 1
    15    7    9 1
    16    7   37 1
    17    8   38 1
    18    8   39 1
    19    8   40 1
    20    9   41 1
    21    9   42 1
    22    9   43 1
    23   10   15 ar
    24   10   11 ar
    25   11   12 ar
    26   11   44 1
    27   12   13 ar
    28   12   45 1
    29   13   14 ar
    30   14   15 ar
    31   14   16 1
    32   16   17 1
    33   16   46 1
    34   17   22 ar
    35   17   18 ar
    36   18   19 ar
    37   18   47 1
    38   19   20 ar
    39   19   48 1
    40   20   21 ar
    41   20   23 1
    42   21   22 ar
    43   21   49 1
    44   22   50 1
    45   23   24 2
    46   23   25 2
    47   23   26 1
    48   26   27 1
    49   26   51 1
    50   26   52 1
    51   27   32 ar
    52   27   28 ar
    53   28   29 ar
    54   28   53 1
    55   29   30 ar
    56   29   54 1
    57   30   31 ar
    58   30   55 1
    59   31   32 ar
    60   31   56 1
    61   32   57 1
@<TRIPOS>MOLECULE
CHEMBL457979
   57    60     0     0     0
SMALL
USER_CHARGES

@<TRIPOS>ATOM
      1 C1         -0.3035    1.5916   -0.2007 C.3       1 <0>        -0.0993
      2 C2         -0.2204    0.0919   -0.0786 C.2       1 <0>         0.2415
      3 N1         -0.3374   -0.7571   -1.0652 N.2       1 <0>        -0.4952
      4 C3         -0.2111   -2.0037   -0.6007 C.2       1 <0>         0.0612
      5 C4         -0.0049   -1.9296    0.7438 C.2       1 <0>        -0.0230
      6 N2         -0.0076   -0.5897    1.0654 N.pl3     1 <0>        -0.4384
      7 C5          0.1821   -0.0141    2.3992 C.3       1 <0>         0.1185
      8 C6          1.6270   -0.2374    2.8501 C.3       1 <0>        -0.1794
      9 C7         -0.1118    1.4867    2.3535 C.3       1 <0>        -0.1818
     10 C8          0.1887   -3.0611    1.6722 C.ar      1 <0>         0.3086
     11 C9          0.2594   -2.8437    3.0541 C.ar      1 <0>        -0.2978
     12 C10         0.4409   -3.9342    3.8831 C.ar      1 <0>         0.1981
     13 N3          0.5419   -5.1433    3.3517 N.ar      1 <0>        -0.5591
     14 C11         0.4716   -5.3213    2.0404 C.ar      1 <0>         0.5683
     15 N4          0.2934   -4.3069    1.2091 N.ar      1 <0>        -0.5505
     16 N5          0.5826   -6.6032    1.5267 N.pl3     1 <0>        -0.6388
     17 C12         0.6504   -7.6995    2.3917 C.ar      1 <0>         0.2267
     18 C13        -0.0655   -7.6923    3.5819 C.ar      1 <0>        -0.1362
     19 C14         0.0033   -8.7771    4.4339 C.ar      1 <0>        -0.0020
     20 C15         0.7838   -9.8696    4.1031 C.ar      1 <0>        -0.6831
     21 C16         1.4982   -9.8798    2.9190 C.ar      1 <0>         0.0008
     22 C17         1.4292   -8.8007    2.0599 C.ar      1 <0>        -0.1693
     23 S1          0.8688  -11.2515    5.1929 S.o2      1 <0>         2.4946
     24 O1          2.1265  -11.8531    4.9182 O.2       1 <0>        -0.9312
     25 O2          0.5870  -10.7169    6.4790 O.2       1 <0>        -0.9307
     26 C18        -0.4767  -12.3467    4.6629 C.3       1 <0>        -0.5615
     27 C19        -0.4981  -13.5749    5.5359 C.ar      1 <0>        -0.0991
     28 C20         0.2429  -14.6870    5.1825 C.ar      1 <0>        -0.1032
     29 C21         0.2232  -15.8137    5.9832 C.ar      1 <0>        -0.1177
     30 C22        -0.5371  -15.8280    7.1376 C.ar      1 <0>        -0.1080
     31 C23        -1.2774  -14.7155    7.4914 C.ar      1 <0>        -0.1178
     32 C24        -1.2544  -13.5873    6.6929 C.ar      1 <0>        -0.1031
     33 H1          0.7025    2.0103   -0.2277 H         1 <0>         0.0847
     34 H2         -0.8306    1.8528   -1.1183 H         1 <0>         0.0907
     35 H3         -0.8426    1.9966    0.6558 H         1 <0>         0.1023
     36 H4         -0.2638   -2.9092   -1.1870 H         1 <0>         0.1812
     37 H5         -0.4967   -0.4961    3.1028 H         1 <0>         0.1017
     38 H6          2.3079    0.1722    2.1040 H         1 <0>         0.0682
     39 H7          1.7910    0.2623    3.8049 H         1 <0>         0.0842
     40 H8          1.8115   -1.3058    2.9627 H         1 <0>         0.0738
     41 H9         -1.1588    1.6442    2.0944 H         1 <0>         0.0773
     42 H10         0.0910    1.9265    3.3300 H         1 <0>         0.0837
     43 H11         0.5230    1.9586    1.6036 H         1 <0>         0.0871
     44 H12         0.1744   -1.8473    3.4620 H         1 <0>         0.1561
     45 H13         0.5001   -3.8019    4.9534 H         1 <0>         0.1755
     46 H14         0.6132   -6.7400    0.5669 H         1 <0>         0.4287
     47 H15        -0.6750   -6.8392    3.8411 H         1 <0>         0.1428
     48 H16        -0.5528   -8.7720    5.3597 H         1 <0>         0.1447
     49 H17         2.1074  -10.7343    2.6639 H         1 <0>         0.1465
     50 H18         1.9839   -8.8112    1.1333 H         1 <0>         0.1375
     51 H19        -1.4281  -11.8220    4.7505 H         1 <0>         0.1447
     52 H20        -0.3183  -12.6410    3.6254 H         1 <0>         0.1448
     53 H21         0.8369  -14.6758    4.2806 H         1 <0>         0.1317
     54 H22         0.8016  -16.6828    5.7068 H         1 <0>         0.1301
     55 H23        -0.5530  -16.7085    7.7628 H         1 <0>         0.1281
     56 H24        -1.8717  -14.7268    8.3931 H         1 <0>         0.1300
     57 H25        -1.8298  -12.7169    6.9713 H         1 <0>         0.1315
@<TRIPOS>BOND
     1    1    2 1
     2    1   33 1
     3    1   34 1
     4    1   35 1
     5    2    6 1
     6    2    3 2
     7    3    4 1
     8    4    5 2
     9    4   36 1
    10    5    6 1
    11    5   10 1
    12    6    7 1
    13    7    8 1
    14    7    9 1
    15    7   37 1
    16    8   38 1
    17    8   39 1
    18    8   40 1
    19    9   41 1
    20    9   42 1
    21    9   43 1
    22   10   15 ar
    23   10   11 ar
    24   11   12 ar
    25   11   44 1
    26   12   13 ar
    27   12   45 1
    28   13   14 ar
    29   14   15 ar
    30   14   16 1
    31   16   17 1
    32   16   46 1
    33   17   22 ar
    34   17   18 ar
    35   18   19 ar
    36   18   47 1
    37   19   20 ar
    38   19   48 1
    39   20   21 ar
    40   20   23 1
    41   21   22 ar
    42   21   49 1
    43   22   50 1
    44   23   24 2
    45   23   25 2
    46   23   26 1
    47   26   27 1
    48   26   51 1
    49   26   52 1
    50   27   32 ar
    51   27   28 ar
    52   28   29 ar
    53   28   53 1
    54   29   30 ar
    55   29   54 1
    56   30   31 ar
    57   30   55 1
    58   31   32 ar
    59   31   56 1
    60   32   57 1
@<TRIPOS>MOLECULE
CHEMBL274456
   40    42     0     0     0
SMALL
USER_CHARGES

@<TRIPOS>ATOM
      1 C1         -0.0187    1.5258    0.0104 C.3       1 <0>        -0.1661
      2 C2          0.0021   -0.0041    0.0020 C.3       1 <0>         0.1715
      3 C3          0.7421   -0.5109    1.2415 C.3       1 <0>        -0.1654
      4 C4         -1.4333   -0.5336    0.0129 C.3       1 <0>        -0.1580
      5 N1          0.6878   -0.4765   -1.2033 N.pl3     1 <0>        -0.6808
      6 C5          2.0010   -0.1243   -1.4322 C.ar      1 <0>         0.4891
      7 C6          2.6811   -0.5657   -2.5946 C.ar      1 <0>        -0.1727
      8 C7          2.0606   -1.3697   -3.5547 C.ar      1 <0>        -0.0686
      9 C8          2.7774   -1.7692   -4.6705 C.ar      1 <0>        -0.0231
     10 C9          4.1126   -1.3727   -4.8377 C.ar      1 <0>        -0.0668
     11 C10         4.7304   -0.5907   -3.9118 C.ar      1 <0>        -0.0904
     12 C11         4.0296   -0.1699   -2.7721 C.ar      1 <0>         0.1835
     13 N2          4.6016    0.6024   -1.8360 N.ar      1 <0>        -0.5043
     14 C12         3.9231    0.9812   -0.7794 C.ar      1 <0>         0.2920
     15 N3          2.6605    0.6411   -0.5734 N.ar      1 <0>        -0.5602
     16 C13         4.6105    1.8480    0.2440 C.3       1 <0>         0.5463
     17 F1          5.7850    2.3746   -0.3043 F         1 <0>        -0.1551
     18 F2          3.7596    2.8942    0.6161 F         1 <0>        -0.1607
     19 F3          4.9251    1.0798    1.3700 F         1 <0>        -0.1642
     20 C14         2.1286   -2.6227   -5.6959 C.2       1 <0>        -0.0846
     21 C15         2.8311   -3.0403   -6.8224 C.2       1 <0>        -0.1525
     22 C16         2.2057   -3.8179   -7.7347 C.2       1 <0>        -0.1651
     23 S1          0.5761   -3.9937   -7.0285 S.3       1 <0>         0.0586
     24 C17         0.8290   -3.0215   -5.5530 C.2       1 <0>        -0.1692
     25 H1          1.0039    1.9031    0.0027 H         1 <0>         0.0848
     26 H2         -0.5459    1.8868   -0.8726 H         1 <0>         0.0530
     27 H3         -0.5289    1.8773    0.9072 H         1 <0>         0.0684
     28 H4          0.2319   -0.1594    2.1383 H         1 <0>         0.0686
     29 H5          0.7568   -1.6008    1.2356 H         1 <0>         0.0532
     30 H6          1.7647   -0.1336    1.2338 H         1 <0>         0.0832
     31 H7         -1.9605   -0.1726   -0.8702 H         1 <0>         0.0634
     32 H8         -1.4185   -1.6235    0.0069 H         1 <0>         0.0634
     33 H9         -1.9435   -0.1821    0.9097 H         1 <0>         0.0806
     34 H10         0.2179   -1.0371   -1.8404 H         1 <0>         0.4121
     35 H11         1.0330   -1.6767   -3.4277 H         1 <0>         0.1304
     36 H12         4.6577   -1.6931   -5.7133 H         1 <0>         0.1406
     37 H13         5.7592   -0.2942   -4.0541 H         1 <0>         0.1487
     38 H14         3.8606   -2.7472   -6.9659 H         1 <0>         0.1401
     39 H15         2.5932   -4.2278   -8.6557 H         1 <0>         0.1903
     40 H16         0.1348   -2.8039   -4.7548 H         1 <0>         0.1860
@<TRIPOS>BOND
     1    1    2 1
     2    1   25 1
     3    1   26 1
     4    1   27 1
     5    2    3 1
     6    2    4 1
     7    2    5 1
     8    3   28 1
     9    3   29 1
    10    3   30 1
    11    4   31 1
    12    4   32 1
    13    4   33 1
    14    5    6 1
    15    5   34 1
    16    6   15 ar
    17    6    7 ar
    18    7   12 ar
    19    7    8 ar
    20    8    9 ar
    21    8   35 1
    22    9   10 ar
    23    9   20 1
    24   10   11 ar
    25   10   36 1
    26   11   12 ar
    27   11   37 1
    28   12   13 ar
    29   13   14 ar
    30   14   15 ar
    31   14   16 1
    32   16   17 1
    33   16   18 1
    34   16   19 1
    35   20   24 2
    36   20   21 1
    37   21   22 2
    38   21   38 1
    39   22   23 1
    40   22   39 1
    41   23   24 1
    42   24   40 1
@<TRIPOS>MOLECULE
CHEMBL358525
   71    76     0     0     0
SMALL
USER_CHARGES

@<TRIPOS>ATOM
      1 C1          0.2333    1.9899   -0.1846 C.ar      1 <0>        -0.0643
      2 C2          1.4548    2.6519   -0.1690 C.ar      1 <0>        -0.0907
      3 C3          2.6366    1.9323   -0.0763 C.ar      1 <0>         0.0209
      4 C4          2.5892    0.5276    0.0018 C.ar      1 <0>        -0.1682
      5 C5          1.3590   -0.1277   -0.0142 C.ar      1 <0>         0.1901
      6 C6          0.1803    0.6164   -0.1086 C.ar      1 <0>        -0.1138
      7 N1          1.3052   -1.5156    0.0625 N.am      1 <0>        -0.6344
      8 C7          0.2914   -2.1155    0.7172 C.2       1 <0>         0.5048
      9 O1         -0.6154   -1.4503    1.1710 O.2       1 <0>        -0.5130
     10 C8          0.2845   -3.6131    0.8853 C.3       1 <0>        -0.0311
     11 N2         -0.9171   -4.0170    1.6276 N.4       1 <0>        -0.3711
     12 C9         -0.8593   -3.4655    2.9867 C.3       1 <0>        -0.0224
     13 C10        -2.1455   -3.8151    3.7382 C.3       1 <0>        -0.1346
     14 C11        -2.2909   -5.3379    3.8094 C.3       1 <0>        -0.1334
     15 C12        -2.2753   -5.9092    2.3886 C.3       1 <0>        -0.1603
     16 C13        -0.9843   -5.4821    1.6871 C.3       1 <0>        -0.0060
     17 C14        -3.6142   -5.6943    4.4896 C.3       1 <0>        -0.0042
     18 N3         -3.6981   -7.1504    4.6650 N.4       1 <0>        -0.6407
     19 C15         3.9841    0.0395    0.0902 C.2       1 <0>         0.4881
     20 O2          4.3405   -1.1194    0.1712 O.2       1 <0>        -0.4360
     21 C16         4.8604    1.2279    0.0603 C.2       1 <0>        -0.3173
     22 C17         4.0569    2.3562   -0.0390 C.2       1 <0>         0.1456
     23 N4          4.8749    3.4304   -0.0648 N.pl3     1 <0>        -0.4158
     24 H1          4.5919    4.3559   -0.1300 H         1 <0>         0.4500
     25 N5          6.1989    2.9855    0.0180 N.2       1 <0>        -0.2636
     26 C18         6.2044    1.6707    0.0937 C.2       1 <0>         0.2150
     27 C19         7.4048    0.8079    0.1956 C.ar      1 <0>        -0.1069
     28 C20         7.3605   -0.3643    0.9504 C.ar      1 <0>        -0.0226
     29 C21         8.4781   -1.1651    1.0437 C.ar      1 <0>        -0.2055
     30 C22         9.6496   -0.8052    0.3866 C.ar      1 <0>         0.2436
     31 C23         9.6962    0.3629   -0.3664 C.ar      1 <0>        -0.2026
     32 C24         8.5792    1.1637   -0.4678 C.ar      1 <0>        -0.0260
     33 N6         10.7799   -1.6170    0.4833 N.pl3     1 <0>        -0.6266
     34 C25        12.0659   -1.1970   -0.0958 C.3       1 <0>         0.0820
     35 C26        13.1511   -1.3475    0.9765 C.3       1 <0>         0.0449
     36 O3         13.0995   -2.6704    1.5160 O.3       1 <0>        -0.3764
     37 C27        11.8723   -2.9849    2.1785 C.3       1 <0>         0.0446
     38 C28        10.7230   -2.9158    1.1727 C.3       1 <0>         0.0837
     39 H2         -0.6826    2.5580   -0.2525 H         1 <0>         0.1497
     40 H3          1.4840    3.7298   -0.2297 H         1 <0>         0.1447
     41 H4         -0.7750    0.1128   -0.1213 H         1 <0>         0.1522
     42 H5          1.9974   -2.0516   -0.3553 H         1 <0>         0.4303
     43 H6          0.2828   -4.0888   -0.0954 H         1 <0>         0.1702
     44 H7          1.1729   -3.9209    1.4369 H         1 <0>         0.1689
     45 H8         -0.0044   -3.8889    3.5140 H         1 <0>         0.1329
     46 H9         -0.7526   -2.3820    2.9344 H         1 <0>         0.1588
     47 H10        -2.0999   -3.4063    4.7476 H         1 <0>         0.1255
     48 H11        -3.0011   -3.3920    3.2118 H         1 <0>         0.1029
     49 H12        -1.4620   -5.7569    4.3798 H         1 <0>         0.1155
     50 H13        -2.3225   -6.9973    2.4333 H         1 <0>         0.1115
     51 H14        -3.1336   -5.5296    1.8342 H         1 <0>         0.1068
     52 H15        -0.9698   -5.8874    0.6753 H         1 <0>         0.1444
     53 H16        -0.1267   -5.8625    2.2421 H         1 <0>         0.1385
     54 H17        -3.6647   -5.2075    5.4636 H         1 <0>         0.1472
     55 H18        -4.4442   -5.3546    3.8702 H         1 <0>         0.1421
     56 H19        -4.5707   -7.3854    5.1136 H         1 <0>         0.4485
     57 H20        -3.6513   -7.6010    3.7634 H         1 <0>         0.4329
     58 H21         6.4511   -0.6439    1.4615 H         1 <0>         0.1230
     59 H22         8.4443   -2.0728    1.6280 H         1 <0>         0.1267
     60 H23        10.6072    0.6406   -0.8757 H         1 <0>         0.1306
     61 H24         8.6144    2.0683   -1.0567 H         1 <0>         0.1294
     62 H25        12.3061   -1.8271   -0.9521 H         1 <0>         0.0760
     63 H26        12.0037   -0.1556   -0.4115 H         1 <0>         0.0960
     64 H27        14.1303   -1.1742    0.5302 H         1 <0>         0.1096
     65 H28        12.9794   -0.6228    1.7724 H         1 <0>         0.0577
     66 H29        11.9316   -3.9896    2.5970 H         1 <0>         0.1066
     67 H30        11.6960   -2.2662    2.9787 H         1 <0>         0.0561
     68 H31         9.7720   -3.0120    1.6965 H         1 <0>         0.0926
     69 H32        10.8257   -3.7218    0.4462 H         1 <0>         0.0742
     70 H33        -2.9297   -7.4649    5.2384 H         1 <0>         0.4394
     71 H34        -1.7365   -3.6626    1.1576 H         1 <0>         0.4323
@<TRIPOS>BOND
     1    1    6 ar
     2    1    2 ar
     3    1   39 1
     4    2    3 ar
     5    2   40 1
     6    3   22 1
     7    3    4 ar
     8    4    5 ar
     9    4   19 1
    10    5    6 ar
    11    5    7 1
    12    6   41 1
    13    7    8 am
    14    7   42 1
    15    8    9 2
    16    8   10 1
    17   10   11 1
    18   10   43 1
    19   10   44 1
    20   11   16 1
    21   11   12 1
    22   11   71 1
    23   12   13 1
    24   12   45 1
    25   12   46 1
    26   13   14 1
    27   13   47 1
    28   13   48 1
    29   14   15 1
    30   14   17 1
    31   14   49 1
    32   15   16 1
    33   15   50 1
    34   15   51 1
    35   16   52 1
    36   16   53 1
    37   17   18 1
    38   17   54 1
    39   17   55 1
    40   18   56 1
    41   18   57 1
    42   18   70 1
    43   19   20 2
    44   19   21 1
    45   21   26 1
    46   21   22 2
    47   22   23 1
    48   23   24 1
    49   23   25 1
    50   25   26 2
    51   26   27 1
    52   27   32 ar
    53   27   28 ar
    54   28   29 ar
    55   28   58 1
    56   29   30 ar
    57   29   59 1
    58   30   31 ar
    59   30   33 1
    60   31   32 ar
    61   31   60 1
    62   32   61 1
    63   33   38 1
    64   33   34 1
    65   34   35 1
    66   34   62 1
    67   34   63 1
    68   35   36 1
    69   35   64 1
    70   35   65 1
    71   36   37 1
    72   37   38 1
    73   37   66 1
    74   37   67 1
    75   38   68 1
    76   38   69 1
@<TRIPOS>MOLECULE
CHEMBL358525
   71    76     0     0     0
SMALL
USER_CHARGES

@<TRIPOS>ATOM
      1 C1          0.2094    2.0022   -0.1844 C.ar      1 <0>        -0.0645
      2 C2          1.4338    2.6502   -0.1682 C.ar      1 <0>        -0.0879
      3 C3          2.6111    1.9193   -0.0763 C.ar      1 <0>         0.0522
      4 C4          2.5545    0.5166    0.0009 C.ar      1 <0>        -0.1681
      5 C5          1.3105   -0.1266   -0.0163 C.ar      1 <0>         0.1841
      6 C6          0.1442    0.6263   -0.1092 C.ar      1 <0>        -0.1170
      7 N1          1.2412   -1.5151    0.0591 N.am      1 <0>        -0.6329
      8 C7          0.2216   -2.1043    0.7145 C.2       1 <0>         0.5032
      9 O1         -0.6772   -1.4293    1.1700 O.2       1 <0>        -0.5141
     10 C8          0.1983   -3.6018    0.8814 C.3       1 <0>        -0.0310
     11 N2         -1.0068   -3.9930    1.6248 N.4       1 <0>        -0.3709
     12 C9         -0.9412   -3.4433    2.9843 C.3       1 <0>        -0.0223
     13 C10        -2.2304   -3.7792    3.7371 C.3       1 <0>        -0.1346
     14 C11        -2.3926   -5.3003    3.8071 C.3       1 <0>        -0.1333
     15 C12        -2.3851   -5.8706    2.3859 C.3       1 <0>        -0.1603
     16 C13        -1.0902   -5.4573    1.6831 C.3       1 <0>        -0.0058
     17 C14        -3.7190   -5.6426    4.4887 C.3       1 <0>        -0.0042
     18 N3         -3.8188   -7.0978    4.6630 N.4       1 <0>        -0.6406
     19 C15         3.9306   -0.0124    0.0900 C.2       1 <0>         0.4960
     20 O2          4.2450   -1.1851    0.1697 O.2       1 <0>        -0.4526
     21 C16         4.8514    1.1316    0.0645 C.2       1 <0>        -0.3508
     22 C17         4.0330    2.3426   -0.0393 C.2       1 <0>         0.1133
     23 N4          4.8508    3.3656   -0.0627 N.2       1 <0>        -0.2228
     24 H1          6.9594    3.4753    0.0213 H         1 <0>         0.4530
     25 N5          6.1706    2.9108    0.0194 N.pl3     1 <0>        -0.4615
     26 C18         6.1750    1.5501    0.0975 C.2       1 <0>         0.2701
     27 C19         7.3641    0.6836    0.1977 C.ar      1 <0>        -0.1403
     28 C20         7.3855   -0.3737    1.1123 C.ar      1 <0>        -0.0102
     29 C21         8.4972   -1.1806    1.2033 C.ar      1 <0>        -0.2047
     30 C22         9.5990   -0.9446    0.3866 C.ar      1 <0>         0.2518
     31 C23         9.5813    0.1071   -0.5246 C.ar      1 <0>        -0.2007
     32 C24         8.4703    0.9139   -0.6256 C.ar      1 <0>        -0.0338
     33 N6         10.7222   -1.7627    0.4817 N.pl3     1 <0>        -0.6223
     34 C25        11.9461   -1.4602   -0.2774 C.3       1 <0>         0.0802
     35 C26        13.1346   -1.4886    0.6904 C.3       1 <0>         0.0449
     36 O3         13.1241   -2.7223    1.4127 O.3       1 <0>        -0.3752
     37 C27        11.9686   -2.9103    2.2332 C.3       1 <0>         0.0445
     38 C28        10.7222   -2.9516    1.3488 C.3       1 <0>         0.0814
     39 H2         -0.7013    2.5789   -0.2519 H         1 <0>         0.1485
     40 H3          1.4729    3.7279   -0.2276 H         1 <0>         0.1472
     41 H4         -0.8158    0.1316   -0.1227 H         1 <0>         0.1505
     42 H5          1.9268   -2.0584   -0.3601 H         1 <0>         0.4294
     43 H6          0.1901   -4.0767   -0.0997 H         1 <0>         0.1694
     44 H7          1.0838   -3.9199    1.4316 H         1 <0>         0.1680
     45 H8         -0.0905   -3.8766    3.5102 H         1 <0>         0.1324
     46 H9         -0.8226   -2.3610    2.9328 H         1 <0>         0.1595
     47 H10        -2.1790   -3.3717    4.7468 H         1 <0>         0.1254
     48 H11        -3.0818   -3.3461    3.2121 H         1 <0>         0.1030
     49 H12        -1.5678   -5.7291    4.3762 H         1 <0>         0.1152
     50 H13        -2.4443   -6.9581    2.4297 H         1 <0>         0.1111
     51 H14        -3.2398   -5.4810    1.8328 H         1 <0>         0.1069
     52 H15        -1.0815   -5.8618    0.6710 H         1 <0>         0.1441
     53 H16        -0.2363   -5.8476    2.2368 H         1 <0>         0.1381
     54 H17        -3.7629   -5.1561    5.4631 H         1 <0>         0.1471
     55 H18        -4.5459   -5.2931    3.8706 H         1 <0>         0.1421
     56 H19        -4.6935   -7.3235    5.1125 H         1 <0>         0.4484
     57 H20        -3.7782   -7.5481    3.7610 H         1 <0>         0.4329
     58 H21         6.5311   -0.5569    1.7470 H         1 <0>         0.1256
     59 H22         8.5145   -1.9974    1.9096 H         1 <0>         0.1306
     60 H23        10.4384    0.2878   -1.1564 H         1 <0>         0.1335
     61 H24         8.4554    1.7270   -1.3363 H         1 <0>         0.1271
     62 H25        12.0892   -2.2088   -1.0566 H         1 <0>         0.0784
     63 H26        11.8634   -0.4713   -0.7283 H         1 <0>         0.0963
     64 H27        14.0643   -1.4040    0.1277 H         1 <0>         0.1109
     65 H28        13.0545   -0.6565    1.3899 H         1 <0>         0.0582
     66 H29        12.0594   -3.8485    2.7805 H         1 <0>         0.1086
     67 H30        11.8842   -2.0833    2.9383 H         1 <0>         0.0570
     68 H31         9.8295   -2.9498    1.9742 H         1 <0>         0.0940
     69 H32        10.7400   -3.8529    0.7360 H         1 <0>         0.0768
     70 H33        -3.0533   -7.4213    5.2352 H         1 <0>         0.4393
     71 H34        -1.8229   -3.6290    1.1561 H         1 <0>         0.4324
@<TRIPOS>BOND
     1    1    6 ar
     2    1    2 ar
     3    1   39 1
     4    2    3 ar
     5    2   40 1
     6    3   22 1
     7    3    4 ar
     8    4    5 ar
     9    4   19 1
    10    5    6 ar
    11    5    7 1
    12    6   41 1
    13    7    8 am
    14    7   42 1
    15    8    9 2
    16    8   10 1
    17   10   11 1
    18   10   43 1
    19   10   44 1
    20   11   16 1
    21   11   12 1
    22   11   71 1
    23   12   13 1
    24   12   45 1
    25   12   46 1
    26   13   14 1
    27   13   47 1
    28   13   48 1
    29   14   15 1
    30   14   17 1
    31   14   49 1
    32   15   16 1
    33   15   50 1
    34   15   51 1
    35   16   52 1
    36   16   53 1
    37   17   18 1
    38   17   54 1
    39   17   55 1
    40   18   56 1
    41   18   57 1
    42   18   70 1
    43   19   20 2
    44   19   21 1
    45   21   22 1
    46   21   26 2
    47   22   23 2
    48   23   25 1
    49   24   25 1
    50   25   26 1
    51   26   27 1
    52   27   32 ar
    53   27   28 ar
    54   28   29 ar
    55   28   58 1
    56   29   30 ar
    57   29   59 1
    58   30   31 ar
    59   30   33 1
    60   31   32 ar
    61   31   60 1
    62   32   61 1
    63   33   38 1
    64   33   34 1
    65   34   35 1
    66   34   62 1
    67   34   63 1
    68   35   36 1
    69   35   64 1
    70   35   65 1
    71   36   37 1
    72   37   38 1
    73   37   66 1
    74   37   67 1
    75   38   68 1
    76   38   69 1
@<TRIPOS>MOLECULE
CHEMBL181416
   60    64     0     0     0
SMALL
USER_CHARGES

@<TRIPOS>ATOM
      1 C1          0.6730    1.4246    0.3282 C.3       1 <0>         0.0184
      2 O1          0.6783   -0.0043    0.3126 O.3       1 <0>        -0.2933
      3 C2          1.0849   -0.6068   -0.8343 C.ar      1 <0>         0.1797
      4 C3          1.4777    0.1767   -1.9247 C.ar      1 <0>        -0.2081
      5 C4          1.8893   -0.3993   -3.0866 C.ar      1 <0>        -0.0242
      6 C5          1.9220   -1.7979   -3.1963 C.ar      1 <0>        -0.2347
      7 C6          2.3399   -2.4414   -4.3751 C.ar      1 <0>         0.2455
      8 N1          2.3449   -3.7578   -4.4050 N.ar      1 <0>        -0.5621
      9 C7          1.9662   -4.4809   -3.3525 C.ar      1 <0>         0.5659
     10 N2          1.5650   -3.9336   -2.2215 N.ar      1 <0>        -0.5586
     11 C8          1.5255   -2.6006   -2.0948 C.ar      1 <0>         0.2433
     12 C9          1.1109   -1.9824   -0.9084 C.ar      1 <0>        -0.1229
     13 C10         0.6916   -2.8150    0.2757 C.3       1 <0>        -0.0328
     14 C11        -0.7483   -2.4518    0.6936 C.3       1 <0>        -0.1132
     15 C12        -0.7274   -2.5350    2.2401 C.3       1 <0>        -0.1219
     16 C13         0.6676   -1.9624    2.5944 C.3       1 <0>        -0.1184
     17 C14         1.5918   -2.5038    1.4842 C.3       1 <0>        -0.1085
     18 N3          1.9944   -5.8611   -3.4497 N.pl3     1 <0>        -0.6376
     19 C15         2.5248   -6.4721   -4.5932 C.ar      1 <0>         0.1335
     20 C16         3.5884   -5.8838   -5.2647 C.ar      1 <0>        -0.0654
     21 C17         4.1113   -6.4859   -6.3918 C.ar      1 <0>        -0.1585
     22 C18         3.5738   -7.6802   -6.8537 C.ar      1 <0>         0.1981
     23 C19         2.5103   -8.2688   -6.1818 C.ar      1 <0>        -0.1640
     24 C20         1.9907   -7.6691   -5.0519 C.ar      1 <0>        -0.1034
     25 N4          4.1034   -8.2904   -7.9964 N.pl3     1 <0>        -0.6409
     26 C21         5.2299   -7.7802   -8.7990 C.3       1 <0>         0.1147
     27 C22         5.8126   -9.0303   -9.5041 C.3       1 <0>        -0.1508
     28 C23         4.5264   -9.8403   -9.8155 C.3       1 <0>         0.0103
     29 C24         3.6326   -9.5496   -8.5916 C.3       1 <0>         0.1038
     30 N5          4.8255  -11.2756   -9.9076 N.4       1 <0>        -0.6295
     31 H1          1.6821    1.7937    0.1453 H         1 <0>         0.0589
     32 H2          0.0045    1.7939   -0.4495 H         1 <0>         0.0589
     33 H3          0.3282    1.7760    1.3007 H         1 <0>         0.1051
     34 H4          1.4536    1.2533   -1.8433 H         1 <0>         0.1387
     35 H5          2.1892    0.2172   -3.9210 H         1 <0>         0.1394
     36 H6          2.6494   -1.8685   -5.2367 H         1 <0>         0.1782
     37 H7          0.7530   -3.8745    0.0273 H         1 <0>         0.0905
     38 H8         -0.9963   -1.4411    0.3693 H         1 <0>         0.0715
     39 H9         -1.4576   -3.1702    0.2825 H         1 <0>         0.0587
     40 H10        -1.5179   -1.9204    2.6708 H         1 <0>         0.0640
     41 H11        -0.8162   -3.5692    2.5726 H         1 <0>         0.0631
     42 H12         0.6483   -0.8727    2.5770 H         1 <0>         0.0697
     43 H13         0.9916   -2.3236    3.5704 H         1 <0>         0.0591
     44 H14         2.0895   -3.4125    1.8228 H         1 <0>         0.0591
     45 H15         2.3320   -1.7506    1.2143 H         1 <0>         0.0596
     46 H16         1.6468   -6.4055   -2.7259 H         1 <0>         0.4243
     47 H17         4.0064   -4.9550   -4.9055 H         1 <0>         0.1386
     48 H18         4.9380   -6.0280   -6.9145 H         1 <0>         0.1238
     49 H19         2.0921   -9.1974   -6.5412 H         1 <0>         0.1197
     50 H20         1.1662   -8.1287   -4.5273 H         1 <0>         0.1289
     51 H21         4.8750   -7.0599   -9.5360 H         1 <0>         0.0771
     52 H22         5.9803   -7.3247   -8.1529 H         1 <0>         0.0919
     53 H23         6.3325   -8.7546  -10.4216 H         1 <0>         0.1138
     54 H24         6.4711   -9.5847   -8.8354 H         1 <0>         0.0992
     55 H25         4.0584   -9.4831  -10.7329 H         1 <0>         0.1608
     56 H26         3.7202  -10.3582   -7.8659 H         1 <0>         0.0762
     57 H27         2.5952   -9.4445   -8.9092 H         1 <0>         0.0906
     58 H28         5.2305  -11.5911   -9.0390 H         1 <0>         0.4355
     59 H29         3.9737  -11.7858  -10.0866 H         1 <0>         0.4396
     60 H30         5.4779  -11.4355  -10.6606 H         1 <0>         0.4414
@<TRIPOS>BOND
     1    1    2 1
     2    1   31 1
     3    1   32 1
     4    1   33 1
     5    2    3 1
     6    3   12 ar
     7    3    4 ar
     8    4    5 ar
     9    4   34 1
    10    5    6 ar
    11    5   35 1
    12    6   11 ar
    13    6    7 ar
    14    7    8 ar
    15    7   36 1
    16    8    9 ar
    17    9   10 ar
    18    9   18 1
    19   10   11 ar
    20   11   12 ar
    21   12   13 1
    22   13   17 1
    23   13   14 1
    24   13   37 1
    25   14   15 1
    26   14   38 1
    27   14   39 1
    28   15   16 1
    29   15   40 1
    30   15   41 1
    31   16   17 1
    32   16   42 1
    33   16   43 1
    34   17   44 1
    35   17   45 1
    36   18   19 1
    37   18   46 1
    38   19   24 ar
    39   19   20 ar
    40   20   21 ar
    41   20   47 1
    42   21   22 ar
    43   21   48 1
    44   22   23 ar
    45   22   25 1
    46   23   24 ar
    47   23   49 1
    48   24   50 1
    49   25   29 1
    50   25   26 1
    51   26   27 1
    52   26   51 1
    53   26   52 1
    54   27   28 1
    55   27   53 1
    56   27   54 1
    57   28   29 1
    58   28   30 1
    59   28   55 1
    60   29   56 1
    61   29   57 1
    62   30   58 1
    63   30   59 1
    64   30   60 1
@<TRIPOS>MOLECULE
CHEMBL181416
   60    64     0     0     0
SMALL
USER_CHARGES

@<TRIPOS>ATOM
      1 C1          0.6730    1.4246    0.3282 C.3       1 <0>         0.0184
      2 O1          0.6783   -0.0043    0.3126 O.3       1 <0>        -0.2933
      3 C2          1.0849   -0.6068   -0.8343 C.ar      1 <0>         0.1797
      4 C3          1.4777    0.1767   -1.9247 C.ar      1 <0>        -0.2081
      5 C4          1.8893   -0.3993   -3.0866 C.ar      1 <0>        -0.0243
      6 C5          1.9220   -1.7979   -3.1963 C.ar      1 <0>        -0.2348
      7 C6          2.3399   -2.4414   -4.3751 C.ar      1 <0>         0.2454
      8 N1          2.3449   -3.7578   -4.4050 N.ar      1 <0>        -0.5622
      9 C7          1.9662   -4.4809   -3.3525 C.ar      1 <0>         0.5659
     10 N2          1.5650   -3.9336   -2.2215 N.ar      1 <0>        -0.5585
     11 C8          1.5255   -2.6006   -2.0948 C.ar      1 <0>         0.2434
     12 C9          1.1109   -1.9824   -0.9084 C.ar      1 <0>        -0.1228
     13 C10         0.6916   -2.8150    0.2757 C.3       1 <0>        -0.0328
     14 C11        -0.7483   -2.4518    0.6936 C.3       1 <0>        -0.1132
     15 C12        -0.7274   -2.5350    2.2401 C.3       1 <0>        -0.1219
     16 C13         0.6676   -1.9624    2.5944 C.3       1 <0>        -0.1183
     17 C14         1.5918   -2.5038    1.4842 C.3       1 <0>        -0.1085
     18 N3          1.9944   -5.8611   -3.4497 N.pl3     1 <0>        -0.6375
     19 C15         2.5248   -6.4721   -4.5932 C.ar      1 <0>         0.1339
     20 C16         3.5884   -5.8838   -5.2647 C.ar      1 <0>        -0.0657
     21 C17         4.1113   -6.4859   -6.3918 C.ar      1 <0>        -0.1573
     22 C18         3.5738   -7.6802   -6.8537 C.ar      1 <0>         0.1975
     23 C19         2.5103   -8.2688   -6.1818 C.ar      1 <0>        -0.1636
     24 C20         1.9907   -7.6691   -5.0519 C.ar      1 <0>        -0.1035
     25 N4          4.1034   -8.2904   -7.9964 N.pl3     1 <0>        -0.6381
     26 C21         5.2268   -7.7816   -8.7968 C.3       1 <0>         0.1145
     27 C22         5.4736   -8.7937   -9.9353 C.3       1 <0>        -0.1462
     28 C23         4.8448  -10.0997   -9.3817 C.3       1 <0>         0.0039
     29 C24         3.6313   -9.5531   -8.5932 C.3       1 <0>         0.1045
     30 N5          4.4120  -10.9803  -10.4750 N.4       1 <0>        -0.6276
     31 H1          1.6821    1.7937    0.1453 H         1 <0>         0.0589
     32 H2          0.0045    1.7939   -0.4495 H         1 <0>         0.0589
     33 H3          0.3282    1.7760    1.3007 H         1 <0>         0.1051
     34 H4          1.4536    1.2533   -1.8433 H         1 <0>         0.1387
     35 H5          2.1892    0.2172   -3.9210 H         1 <0>         0.1393
     36 H6          2.6494   -1.8685   -5.2367 H         1 <0>         0.1780
     37 H7          0.7530   -3.8745    0.0273 H         1 <0>         0.0906
     38 H8         -0.9963   -1.4411    0.3693 H         1 <0>         0.0714
     39 H9         -1.4576   -3.1702    0.2825 H         1 <0>         0.0587
     40 H10        -1.5179   -1.9204    2.6708 H         1 <0>         0.0640
     41 H11        -0.8162   -3.5692    2.5726 H         1 <0>         0.0632
     42 H12         0.6483   -0.8727    2.5770 H         1 <0>         0.0697
     43 H13         0.9916   -2.3236    3.5704 H         1 <0>         0.0591
     44 H14         2.0895   -3.4125    1.8228 H         1 <0>         0.0592
     45 H15         2.3320   -1.7506    1.2143 H         1 <0>         0.0596
     46 H16         1.6468   -6.4055   -2.7259 H         1 <0>         0.4244
     47 H17         4.0064   -4.9550   -4.9055 H         1 <0>         0.1386
     48 H18         4.9380   -6.0280   -6.9145 H         1 <0>         0.1236
     49 H19         2.0921   -9.1974   -6.5412 H         1 <0>         0.1205
     50 H20         1.1662   -8.1287   -4.5273 H         1 <0>         0.1291
     51 H21         4.9727   -6.8077   -9.2152 H         1 <0>         0.0804
     52 H22         6.1179   -7.6990   -8.1745 H         1 <0>         0.0779
     53 H23         4.9676   -8.4787  -10.8478 H         1 <0>         0.0992
     54 H24         6.5415   -8.9241  -10.1106 H         1 <0>         0.1120
     55 H25         5.5377  -10.6159   -8.7174 H         1 <0>         0.1593
     56 H26         3.3380  -10.2552   -7.8128 H         1 <0>         0.0975
     57 H27         2.7967   -9.3648   -9.2685 H         1 <0>         0.0771
     58 H28         5.2110  -11.2407  -11.0334 H         1 <0>         0.4415
     59 H29         3.9859  -11.8099  -10.0900 H         1 <0>         0.4401
     60 H30         3.7418  -10.4950  -11.0525 H         1 <0>         0.4354
@<TRIPOS>BOND
     1    1    2 1
     2    1   31 1
     3    1   32 1
     4    1   33 1
     5    2    3 1
     6    3   12 ar
     7    3    4 ar
     8    4    5 ar
     9    4   34 1
    10    5    6 ar
    11    5   35 1
    12    6   11 ar
    13    6    7 ar
    14    7    8 ar
    15    7   36 1
    16    8    9 ar
    17    9   10 ar
    18    9   18 1
    19   10   11 ar
    20   11   12 ar
    21   12   13 1
    22   13   17 1
    23   13   14 1
    24   13   37 1
    25   14   15 1
    26   14   38 1
    27   14   39 1
    28   15   16 1
    29   15   40 1
    30   15   41 1
    31   16   17 1
    32   16   42 1
    33   16   43 1
    34   17   44 1
    35   17   45 1
    36   18   19 1
    37   18   46 1
    38   19   24 ar
    39   19   20 ar
    40   20   21 ar
    41   20   47 1
    42   21   22 ar
    43   21   48 1
    44   22   23 ar
    45   22   25 1
    46   23   24 ar
    47   23   49 1
    48   24   50 1
    49   25   29 1
    50   25   26 1
    51   26   27 1
    52   26   51 1
    53   26   52 1
    54   27   28 1
    55   27   53 1
    56   27   54 1
    57   28   29 1
    58   28   30 1
    59   28   55 1
    60   29   56 1
    61   29   57 1
    62   30   58 1
    63   30   59 1
    64   30   60 1
@<TRIPOS>MOLECULE
CHEMBL129475
   48    50     0     0     0
SMALL
USER_CHARGES

@<TRIPOS>ATOM
      1 C1         -0.0187    1.5258    0.0104 C.3       1 <0>        -0.1419
      2 C2          0.0021   -0.0041    0.0020 C.3       1 <0>         0.0161
      3 C3          0.7421   -0.5109    1.2415 C.3       1 <0>        -0.1422
      4 C4         -1.4333   -0.5336    0.0129 C.3       1 <0>        -0.1470
      5 C5          0.7074   -0.4901   -1.2379 C.2       1 <0>        -0.0116
      6 C6          1.9790   -0.2319   -1.5855 C.2       1 <0>        -0.0384
      7 N1          2.2153   -0.8490   -2.7568 N.2       1 <0>        -0.4492
      8 C7          1.1320   -1.4698   -3.1277 C.2       1 <0>         0.1834
      9 O1          0.1830   -1.2702   -2.2034 O.3       1 <0>        -0.1868
     10 C8          0.9740   -2.2836   -4.3862 C.3       1 <0>        -0.0289
     11 S1          1.4238   -4.0087   -4.0512 S.3       1 <0>         0.0437
     12 C9          1.1895   -4.8185   -5.5985 C.2       1 <0>        -0.2256
     13 C10         1.3712   -6.1266   -5.9318 C.2       1 <0>         0.0866
     14 N2          1.1321   -6.5240   -7.1682 N.2       1 <0>        -0.4855
     15 C11         0.7188   -5.6777   -8.0930 C.2       1 <0>         0.3462
     16 S2          0.6397   -4.1522   -7.1643 S.3       1 <0>         0.0488
     17 N3          0.4201   -5.9115   -9.4329 N.am      1 <0>        -0.5936
     18 C12         0.5423   -7.1526   -9.9439 C.2       1 <0>         0.6475
     19 O2          0.9131   -8.0676   -9.2355 O.2       1 <0>        -0.5027
     20 O3          0.2533   -7.3787  -11.2395 O.3       1 <0>        -0.3506
     21 C13         0.4052   -8.7181  -11.7139 C.3       1 <0>         0.1280
     22 C14         0.0395   -8.7781  -13.1746 C.ar      1 <0>        -0.1033
     23 C15        -1.2661   -9.0331  -13.5504 C.ar      1 <0>        -0.0922
     24 C16        -1.6016   -9.0882  -14.8903 C.ar      1 <0>        -0.1233
     25 C17        -0.6315   -8.8878  -15.8544 C.ar      1 <0>        -0.1052
     26 C18         0.6740   -8.6320  -15.4787 C.ar      1 <0>        -0.1232
     27 C19         1.0086   -8.5726  -14.1387 C.ar      1 <0>        -0.0921
     28 H1          1.0039    1.9031    0.0027 H         1 <0>         0.0641
     29 H2         -0.5459    1.8868   -0.8726 H         1 <0>         0.0609
     30 H3         -0.5289    1.8773    0.9072 H         1 <0>         0.0734
     31 H4          0.2319   -0.1594    2.1383 H         1 <0>         0.0735
     32 H5          0.7568   -1.6008    1.2356 H         1 <0>         0.0618
     33 H6          1.7647   -0.1336    1.2338 H         1 <0>         0.0642
     34 H7         -1.9605   -0.1726   -0.8702 H         1 <0>         0.0610
     35 H8         -1.4185   -1.6235    0.0069 H         1 <0>         0.0622
     36 H9         -1.9435   -0.1821    0.9097 H         1 <0>         0.0691
     37 H10         2.6845    0.3639   -1.0254 H         1 <0>         0.1873
     38 H11        -0.0621   -2.2368   -4.7214 H         1 <0>         0.1205
     39 H12         1.6255   -1.8824   -5.1625 H         1 <0>         0.1329
     40 H13         1.7092   -6.8345   -5.1895 H         1 <0>         0.1783
     41 H14         0.1240   -5.1811   -9.9984 H         1 <0>         0.4357
     42 H15         1.4404   -9.0340  -11.5852 H         1 <0>         0.0833
     43 H16        -0.2498   -9.3805  -11.1479 H         1 <0>         0.0832
     44 H17        -2.0241   -9.1897  -12.7971 H         1 <0>         0.1257
     45 H18        -2.6215   -9.2881  -15.1838 H         1 <0>         0.1271
     46 H19        -0.8934   -8.9316  -16.9013 H         1 <0>         0.1260
     47 H20         1.4320   -8.4758  -16.2320 H         1 <0>         0.1272
     48 H21         2.0278   -8.3690  -13.8451 H         1 <0>         0.1258
@<TRIPOS>BOND
     1    1    2 1
     2    1   28 1
     3    1   29 1
     4    1   30 1
     5    2    3 1
     6    2    4 1
     7    2    5 1
     8    3   31 1
     9    3   32 1
    10    3   33 1
    11    4   34 1
    12    4   35 1
    13    4   36 1
    14    5    9 1
    15    5    6 2
    16    6    7 1
    17    6   37 1
    18    7    8 2
    19    8    9 1
    20    8   10 1
    21   10   11 1
    22   10   38 1
    23   10   39 1
    24   11   12 1
    25   12   16 1
    26   12   13 2
    27   13   14 1
    28   13   40 1
    29   14   15 2
    30   15   16 1
    31   15   17 1
    32   17   18 am
    33   17   41 1
    34   18   19 2
    35   18   20 1
    36   20   21 1
    37   21   22 1
    38   21   42 1
    39   21   43 1
    40   22   27 ar
    41   22   23 ar
    42   23   24 ar
    43   23   44 1
    44   24   25 ar
    45   24   45 1
    46   25   26 ar
    47   25   46 1
    48   26   27 ar
    49   26   47 1
    50   27   48 1
@<TRIPOS>MOLECULE
CHEMBL555229
   24    26     0     0     0
SMALL
USER_CHARGES

@<TRIPOS>ATOM
      1 C1         -0.0167    1.3830    0.0096 C.ar      1 <0>        -0.1386
      2 C2          1.1706    2.0890    0.0021 C.ar      1 <0>        -0.0689
      3 C3          2.3781    1.4136   -0.0135 C.ar      1 <0>        -0.0771
      4 C4          2.3989    0.0301   -0.0211 C.ar      1 <0>        -0.0667
      5 C5          1.2137   -0.6795   -0.0136 C.ar      1 <0>        -0.1982
      6 C6          0.0021   -0.0041    0.0020 C.ar      1 <0>         0.1467
      7 O1         -1.1651   -0.7005    0.0099 O.3       1 <0>        -0.3025
      8 C7         -1.0700   -2.1263    0.0013 C.3       1 <0>         0.1603
      9 C8         -2.4541   -2.7222    0.0118 C.2       1 <0>         0.1907
     10 N1         -3.1496   -3.0257    1.0724 N.2       1 <0>        -0.2496
     11 N2         -4.2893   -3.5150    0.7260 N.2       1 <0>        -0.2526
     12 C9         -4.3686   -3.5443   -0.5701 C.2       1 <0>         0.1210
     13 N3         -3.2093   -3.0366   -1.0982 N.pl3     1 <0>        -0.3170
     14 N4         -3.1266   -2.9881   -2.4835 N.2       1 <0>        -0.3401
     15 C10        -4.1116   -3.4053   -3.2357 C.2       1 <0>         0.3192
     16 S1         -5.3076   -3.9436   -2.0230 S.3       1 <0>         0.0155
     17 S2         -4.2255   -3.4380   -4.9937 S.3       1 <0>        -0.6112
     18 Cl1         3.8689    2.3031   -0.0241 Cl        1 <0>        -0.0767
     19 H1         -0.9590    1.9105    0.0260 H         1 <0>         0.1411
     20 H2          1.1564    3.1689    0.0080 H         1 <0>         0.1395
     21 H3          3.3424   -0.4953   -0.0333 H         1 <0>         0.1361
     22 H4          1.2303   -1.7593   -0.0203 H         1 <0>         0.1393
     23 H5         -0.5419   -2.4498   -0.8957 H         1 <0>         0.0898
     24 H6         -0.5243   -2.4593    0.8841 H         1 <0>         0.1003
@<TRIPOS>BOND
     1    1    6 ar
     2    1    2 ar
     3    1   19 1
     4    2    3 ar
     5    2   20 1
     6    3    4 ar
     7    3   18 1
     8    4    5 ar
     9    4   21 1
    10    5    6 ar
    11    5   22 1
    12    6    7 1
    13    7    8 1
    14    8    9 1
    15    8   23 1
    16    8   24 1
    17    9   13 1
    18    9   10 2
    19   10   11 1
    20   11   12 2
    21   12   16 1
    22   12   13 1
    23   13   14 1
    24   14   15 2
    25   15   16 1
    26   15   17 1
@<TRIPOS>MOLECULE
CHEMBL360695
   52    56     0     0     0
SMALL
USER_CHARGES

@<TRIPOS>ATOM
      1 C1         -0.0294    1.3963   -0.9449 C.3       1 <0>         0.0245
      2 N1         -0.0067   -0.0563   -0.7278 N.3       1 <0>        -0.5399
      3 C2          0.6694   -0.7438   -1.8360 C.3       1 <0>         0.0387
      4 C3          0.5138   -2.2585   -1.6641 C.3       1 <0>         0.1240
      5 N2          0.9880   -2.6275   -0.3216 N.pl3     1 <0>        -0.9971
      6 C4          0.4563   -1.8864    0.8323 C.3       1 <0>         0.1240
      7 C5          0.6142   -0.3863    0.5620 C.3       1 <0>         0.0387
      8 S1          2.0917   -3.8446   -0.1147 S.o2      1 <0>         2.6899
      9 O1          1.9233   -4.3243    1.2123 O.2       1 <0>        -0.9457
     10 O2          1.9804   -4.6911   -1.2506 O.2       1 <0>        -0.9462
     11 C6          3.6932   -3.1134   -0.1865 C.ar      1 <0>        -0.6753
     12 C7          4.3454   -2.9985   -1.4005 C.ar      1 <0>         0.0008
     13 C8          5.6009   -2.4264   -1.4601 C.ar      1 <0>        -0.1206
     14 C9          6.2083   -1.9657   -0.2991 C.ar      1 <0>         0.1925
     15 C10         5.5504   -2.0822    0.9185 C.ar      1 <0>        -0.1442
     16 C11         4.2928   -2.6506    0.9705 C.ar      1 <0>        -0.0001
     17 N3          7.4811   -1.3856   -0.3560 N.pl3     1 <0>        -0.2636
     18 C12         8.4963   -1.6635    0.5184 C.ar      1 <0>         0.1388
     19 C13         9.5879   -0.8807    0.1138 C.ar      1 <0>        -0.1354
     20 C14        10.7986   -0.9346    0.8122 C.ar      1 <0>         0.0042
     21 C15        10.9324   -1.7490    1.8944 C.ar      1 <0>        -0.1447
     22 C16         9.8626   -2.5423    2.3227 C.ar      1 <0>         0.1651
     23 C17         8.6362   -2.5054    1.6387 C.ar      1 <0>        -0.1792
     24 C18         7.7667   -3.4014    2.3007 C.2       1 <0>         0.0700
     25 N4          8.4043   -3.9382    3.3014 N.2       1 <0>        -0.2445
     26 N5          9.7094   -3.4346    3.3522 N.pl3     1 <0>        -0.4861
     27 H1         10.3874   -3.6748    4.0030 H         1 <0>         0.4482
     28 C19         9.0948   -0.1447   -1.0581 C.2       1 <0>         0.0311
     29 N6          7.8480   -0.5285   -1.2386 N.2       1 <0>        -0.2224
     30 C20         9.8471    0.8262   -1.8726 C.2       1 <0>         0.6133
     31 O3         11.0020    1.0873   -1.5948 O.2       1 <0>        -0.5239
     32 N7          9.2552    1.4247   -2.9252 N.am      1 <0>        -0.8377
     33 H2          0.9907    1.7804   -0.9396 H         1 <0>         0.0257
     34 H3         -0.4941    1.6128   -1.9068 H         1 <0>         0.0713
     35 H4         -0.6014    1.8737   -0.1493 H         1 <0>         0.0716
     36 H5          0.2218   -0.4372   -2.7814 H         1 <0>         0.0905
     37 H6          1.7281   -0.4842   -1.8332 H         1 <0>         0.0394
     38 H7         -0.5357   -2.5332   -1.7700 H         1 <0>         0.0878
     39 H8          1.1084   -2.7755   -2.4173 H         1 <0>         0.0950
     40 H9         -0.5987   -2.1252    0.9663 H         1 <0>         0.0879
     41 H10         1.0128   -2.1573    1.7295 H         1 <0>         0.0951
     42 H11         1.6736   -0.1317    0.5314 H         1 <0>         0.0393
     43 H12         0.1265    0.1796    1.3558 H         1 <0>         0.0904
     44 H13         3.8725   -3.3570   -2.3029 H         1 <0>         0.1535
     45 H14         6.1100   -2.3375   -2.4084 H         1 <0>         0.1470
     46 H15         6.0200   -1.7249    1.8231 H         1 <0>         0.1470
     47 H16         3.7790   -2.7378    1.9165 H         1 <0>         0.1552
     48 H17        11.6316   -0.3270    0.4908 H         1 <0>         0.1531
     49 H18        11.8716   -1.7834    2.4264 H         1 <0>         0.1418
     50 H19         6.7433   -3.6066    2.0230 H         1 <0>         0.1917
     51 H20         8.3341    1.2164   -3.1467 H         1 <0>         0.4084
     52 H21         9.7504    2.0637   -3.4612 H         1 <0>         0.4113
@<TRIPOS>BOND
     1    1    2 1
     2    1   33 1
     3    1   34 1
     4    1   35 1
     5    2    7 1
     6    2    3 1
     7    3    4 1
     8    3   36 1
     9    3   37 1
    10    4    5 1
    11    4   38 1
    12    4   39 1
    13    5    6 1
    14    5    8 1
    15    6    7 1
    16    6   40 1
    17    6   41 1
    18    7   42 1
    19    7   43 1
    20    8    9 2
    21    8   10 2
    22    8   11 1
    23   11   16 ar
    24   11   12 ar
    25   12   13 ar
    26   12   44 1
    27   13   14 ar
    28   13   45 1
    29   14   15 ar
    30   14   17 1
    31   15   16 ar
    32   15   46 1
    33   16   47 1
    34   17   29 1
    35   17   18 1
    36   18   23 ar
    37   18   19 ar
    38   19   20 ar
    39   19   28 1
    40   20   21 ar
    41   20   48 1
    42   21   22 ar
    43   21   49 1
    44   22   26 1
    45   22   23 ar
    46   23   24 1
    47   24   25 2
    48   24   50 1
    49   25   26 1
    50   26   27 1
    51   28   29 2
    52   28   30 1
    53   30   31 2
    54   30   32 am
    55   32   51 1
    56   32   52 1
@<TRIPOS>MOLECULE
CHEMBL360695
   53    57     0     0     0
SMALL
USER_CHARGES

@<TRIPOS>ATOM
      1 C1         -0.0178    1.4648    0.0101 C.3       1 <0>        -0.0477
      2 N1          0.0021   -0.0041    0.0020 N.4       1 <0>        -0.3834
      3 C2          0.6802   -0.4759   -1.2119 C.3       1 <0>        -0.0240
      4 C3          0.6009   -2.0047   -1.2786 C.3       1 <0>         0.0951
      5 N2          1.1441   -2.5548   -0.0269 N.pl3     1 <0>        -1.0128
      6 C4          0.6349   -2.0181    1.2446 C.3       1 <0>         0.0948
      7 C5          0.7126   -0.4887    1.1922 C.3       1 <0>        -0.0239
      8 S1          2.2963   -3.7440   -0.0488 S.o2      1 <0>         2.6900
      9 O1          2.1999   -4.4258    1.1943 O.2       1 <0>        -0.9309
     10 O2          2.1667   -4.4122   -1.2962 O.2       1 <0>        -0.9299
     11 C6          3.8675   -2.9468   -0.0654 C.ar      1 <0>        -0.6967
     12 C7          4.4642   -2.6230   -1.2702 C.ar      1 <0>         0.0046
     13 C8          5.6955   -1.9977   -1.2866 C.ar      1 <0>        -0.1317
     14 C9          6.3345   -1.6941   -0.0915 C.ar      1 <0>         0.2337
     15 C10         5.7326   -2.0207    1.1168 C.ar      1 <0>        -0.1705
     16 C11         4.4987   -2.6412    1.1264 C.ar      1 <0>         0.0014
     17 N3          7.5830   -1.0607   -0.1047 N.pl3     1 <0>        -0.3341
     18 C12         8.0151   -0.1452    0.8139 C.ar      1 <0>         0.1794
     19 C13         9.3045    0.2409    0.4463 C.ar      1 <0>        -0.1431
     20 C14        10.0316    1.1851    1.2012 C.ar      1 <0>        -0.0189
     21 C15         9.5297    1.7647    2.3108 C.ar      1 <0>        -0.1029
     22 C16         8.1888    1.4242    2.7748 C.ar      1 <0>         0.1409
     23 C17         7.4083    0.4424    2.0064 C.ar      1 <0>        -0.1991
     24 C18         6.2002    0.3088    2.6536 C.2       1 <0>         0.0764
     25 N4          6.2126    1.1214    3.7223 N.pl3     1 <0>        -0.4358
     26 N5          7.4343    1.8016    3.7878 N.2       1 <0>        -0.2724
     27 H1          5.4834    1.2230    4.3539 H         1 <0>         0.4484
     28 C19         9.6259   -0.5137   -0.7729 C.2       1 <0>         0.0851
     29 N6          8.5860   -1.2696   -1.0560 N.2       1 <0>        -0.2278
     30 C20        10.8850   -0.4418   -1.5361 C.2       1 <0>         0.6042
     31 O3         11.7783    0.2962   -1.1673 O.2       1 <0>        -0.5098
     32 N7         11.0460   -1.1940   -2.6428 N.am      1 <0>        -0.8335
     33 H2          1.0047    1.8421    0.0024 H         1 <0>         0.1214
     34 H3         -0.5450    1.8259   -0.8730 H         1 <0>         0.1273
     35 H4         -0.5280    1.8163    0.9069 H         1 <0>         0.1268
     36 H5          0.1945   -0.0482   -2.0890 H         1 <0>         0.1476
     37 H6          1.7251   -0.1668   -1.1880 H         1 <0>         0.1340
     38 H7         -0.4382   -2.3129   -1.3936 H         1 <0>         0.1071
     39 H8          1.1887   -2.3654   -2.1226 H         1 <0>         0.1364
     40 H9         -0.4008   -2.3277    1.3844 H         1 <0>         0.1071
     41 H10         1.2452   -2.3877    2.0687 H         1 <0>         0.1357
     42 H11         1.7566   -0.1792    1.1434 H         1 <0>         0.1328
     43 H12         0.2508   -0.0704    2.0865 H         1 <0>         0.1469
     44 H13         3.9669   -2.8596   -2.1992 H         1 <0>         0.1529
     45 H14         6.1611   -1.7454   -2.2279 H         1 <0>         0.1508
     46 H15         6.2271   -1.7863    2.0479 H         1 <0>         0.1521
     47 H16         4.0283   -2.8917    2.0657 H         1 <0>         0.1532
     48 H17        11.0269    1.4535    0.8789 H         1 <0>         0.1525
     49 H18        10.1224    2.4829    2.8580 H         1 <0>         0.1477
     50 H19         5.3867   -0.3355    2.3545 H         1 <0>         0.1896
     51 H20        10.3334   -1.7827   -2.9371 H         1 <0>         0.4089
     52 H21        11.8745   -1.1467   -3.1451 H         1 <0>         0.4157
     53 H22        -0.9449   -0.3521    0.0122 H         1 <0>         0.4283
@<TRIPOS>BOND
     1    1    2 1
     2    1   33 1
     3    1   34 1
     4    1   35 1
     5    2    7 1
     6    2    3 1
     7    2   53 1
     8    3    4 1
     9    3   36 1
    10    3   37 1
    11    4    5 1
    12    4   38 1
    13    4   39 1
    14    5    6 1
    15    5    8 1
    16    6    7 1
    17    6   40 1
    18    6   41 1
    19    7   42 1
    20    7   43 1
    21    8    9 2
    22    8   10 2
    23    8   11 1
    24   11   16 ar
    25   11   12 ar
    26   12   13 ar
    27   12   44 1
    28   13   14 ar
    29   13   45 1
    30   14   15 ar
    31   14   17 1
    32   15   16 ar
    33   15   46 1
    34   16   47 1
    35   17   29 1
    36   17   18 1
    37   18   23 ar
    38   18   19 ar
    39   19   20 ar
    40   19   28 1
    41   20   21 ar
    42   20   48 1
    43   21   22 ar
    44   21   49 1
    45   22   23 ar
    46   22   26 2
    47   23   24 2
    48   24   50 1
    49   24   25 1
    50   25   27 1
    51   25   26 1
    52   28   29 2
    53   28   30 1
    54   30   31 2
    55   30   32 am
    56   32   51 1
    57   32   52 1
@<TRIPOS>MOLECULE
CHEMBL360695
   53    57     0     0     0
SMALL
USER_CHARGES

@<TRIPOS>ATOM
      1 C1          0.0057    1.3984   -0.9422 C.3       1 <0>        -0.0474
      2 N1          0.0201   -0.0550   -0.7295 N.4       1 <0>        -0.3835
      3 C2          0.7862   -0.6977   -1.8048 C.3       1 <0>        -0.0238
      4 C3          0.7060   -2.2198   -1.6483 C.3       1 <0>         0.0949
      5 N2          1.1506   -2.5732   -0.2912 N.pl3     1 <0>        -1.0124
      6 C4          0.5489   -1.8566    0.8439 C.3       1 <0>         0.0949
      7 C5          0.6365   -0.3516    0.5698 C.3       1 <0>        -0.0238
      8 S1          2.2962   -3.7440   -0.0484 S.o2      1 <0>         2.6896
      9 O1          2.1033   -4.2334    1.2717 O.2       1 <0>        -0.9289
     10 O2          2.2587   -4.5916   -1.1882 O.2       1 <0>        -0.9295
     11 C6          3.8675   -2.9468   -0.0652 C.ar      1 <0>        -0.6874
     12 C7          4.5550   -2.8020   -1.2563 C.ar      1 <0>        -0.0014
     13 C8          5.7869   -2.1780   -1.2728 C.ar      1 <0>        -0.1209
     14 C9          6.3351   -1.6954   -0.0915 C.ar      1 <0>         0.2095
     15 C10         5.6419   -1.8420    1.1030 C.ar      1 <0>        -0.1442
     16 C11         4.4080   -2.4623    1.1119 C.ar      1 <0>        -0.0023
     17 N3          7.5839   -1.0628   -0.1047 N.pl3     1 <0>        -0.2722
     18 C12         8.5797   -1.3005    0.8033 C.ar      1 <0>         0.1374
     19 C13         9.6509   -0.4721    0.4367 C.ar      1 <0>        -0.1332
     20 C14        10.8384   -0.4773    1.1755 C.ar      1 <0>         0.0035
     21 C15        10.9693   -1.2881    2.2608 C.ar      1 <0>        -0.1400
     22 C16         9.9197   -2.1262    2.6519 C.ar      1 <0>         0.1682
     23 C17         8.7165   -2.1385    1.9268 C.ar      1 <0>        -0.1820
     24 C18         7.8632   -3.0714    2.5581 C.2       1 <0>         0.0654
     25 N4          8.4884   -3.5837    3.5792 N.2       1 <0>        -0.2401
     26 N5          9.7690   -3.0266    3.6747 N.pl3     1 <0>        -0.4824
     27 H1         10.4340   -3.2400    4.3478 H         1 <0>         0.4507
     28 C19         9.1674    0.2456   -0.7505 C.2       1 <0>         0.0434
     29 N6          7.9444   -0.1891   -0.9735 N.2       1 <0>        -0.2301
     30 C20         9.9058    1.2489   -1.5381 C.2       1 <0>         0.6098
     31 O3         11.0388    1.5570   -1.2212 O.2       1 <0>        -0.5168
     32 N7          9.3255    1.8249   -2.6095 N.am      1 <0>        -0.8375
     33 H2          1.0275    1.7777   -0.9290 H         1 <0>         0.1219
     34 H3         -0.4517    1.6199   -1.9065 H         1 <0>         0.1268
     35 H4         -0.5695    1.8760   -0.1490 H         1 <0>         0.1266
     36 H5          0.3701   -0.4091   -2.7700 H         1 <0>         0.1472
     37 H6          1.8276   -0.3809   -1.7485 H         1 <0>         0.1344
     38 H7         -0.3227   -2.5493   -1.7941 H         1 <0>         0.1069
     39 H8          1.3545   -2.6982   -2.3823 H         1 <0>         0.1362
     40 H9         -0.4957   -2.1494    0.9498 H         1 <0>         0.1070
     41 H10         1.0935   -2.0948    1.7576 H         1 <0>         0.1363
     42 H11         1.6825   -0.0453    0.5543 H         1 <0>         0.1342
     43 H12         0.1101    0.1920    1.3544 H         1 <0>         0.1471
     44 H13         4.1282   -3.1775   -2.1745 H         1 <0>         0.1539
     45 H14         6.3237   -2.0659   -2.2033 H         1 <0>         0.1504
     46 H15         6.0654   -1.4678    2.0233 H         1 <0>         0.1507
     47 H16         3.8666   -2.5730    2.0398 H         1 <0>         0.1557
     48 H17        11.6559    0.1650    0.8831 H         1 <0>         0.1555
     49 H18        11.8907   -1.2848    2.8242 H         1 <0>         0.1448
     50 H19         6.8592   -3.3183    2.2458 H         1 <0>         0.1889
     51 H20         8.4218    1.5791   -2.8622 H         1 <0>         0.4065
     52 H21         9.8115    2.4852   -3.1278 H         1 <0>         0.4133
     53 H22        -0.9263   -0.4045   -0.7390 H         1 <0>         0.4278
@<TRIPOS>BOND
     1    1    2 1
     2    1   33 1
     3    1   34 1
     4    1   35 1
     5    2    7 1
     6    2    3 1
     7    2   53 1
     8    3    4 1
     9    3   36 1
    10    3   37 1
    11    4    5 1
    12    4   38 1
    13    4   39 1
    14    5    6 1
    15    5    8 1
    16    6    7 1
    17    6   40 1
    18    6   41 1
    19    7   42 1
    20    7   43 1
    21    8    9 2
    22    8   10 2
    23    8   11 1
    24   11   16 ar
    25   11   12 ar
    26   12   13 ar
    27   12   44 1
    28   13   14 ar
    29   13   45 1
    30   14   15 ar
    31   14   17 1
    32   15   16 ar
    33   15   46 1
    34   16   47 1
    35   17   29 1
    36   17   18 1
    37   18   23 ar
    38   18   19 ar
    39   19   20 ar
    40   19   28 1
    41   20   21 ar
    42   20   48 1
    43   21   22 ar
    44   21   49 1
    45   22   26 1
    46   22   23 ar
    47   23   24 1
    48   24   25 2
    49   24   50 1
    50   25   26 1
    51   26   27 1
    52   28   29 2
    53   28   30 1
    54   30   31 2
    55   30   32 am
    56   32   51 1
    57   32   52 1
@<TRIPOS>MOLECULE
CHEMBL360695
   52    56     0     0     0
SMALL
USER_CHARGES

@<TRIPOS>ATOM
      1 C1         -0.0178    1.4648    0.0101 C.3       1 <0>         0.0244
      2 N1          0.0021   -0.0041    0.0020 N.3       1 <0>        -0.5394
      3 C2          0.5920   -0.5157   -1.2422 C.3       1 <0>         0.0387
      4 C3          0.4303   -2.0387   -1.2918 C.3       1 <0>         0.1240
      5 N2          0.9912   -2.6085   -0.0572 N.pl3     1 <0>        -0.9978
      6 C4          0.5491   -2.0510    1.2300 C.3       1 <0>         0.1238
      7 C5          0.7062   -0.5275    1.1802 C.3       1 <0>         0.0393
      8 S1          2.0917   -3.8446   -0.1151 S.o2      1 <0>         2.6908
      9 O1          2.0092   -4.5205    1.1321 O.2       1 <0>        -0.9477
     10 O2          1.8923   -4.5081   -1.3558 O.2       1 <0>        -0.9466
     11 C6          3.6932   -3.1135   -0.1867 C.ar      1 <0>        -0.6845
     12 C7          4.2616   -2.8159   -1.4117 C.ar      1 <0>         0.0066
     13 C8          5.5166   -2.2424   -1.4712 C.ar      1 <0>        -0.1311
     14 C9          6.2077   -1.9644   -0.2991 C.ar      1 <0>         0.2176
     15 C10         5.6340   -2.2645    0.9296 C.ar      1 <0>        -0.1707
     16 C11         4.3765   -2.8331    0.9824 C.ar      1 <0>         0.0031
     17 N3          7.4803   -1.3834   -0.3560 N.pl3     1 <0>        -0.3268
     18 C12         7.9809   -0.4857    0.5453 C.ar      1 <0>         0.1871
     19 C13         9.2720   -0.1540    0.1335 C.ar      1 <0>        -0.1515
     20 C14        10.0628    0.7600    0.8610 C.ar      1 <0>        -0.0172
     21 C15         9.6232    1.3611    1.9856 C.ar      1 <0>        -0.1069
     22 C16         8.2857    1.0771    2.4954 C.ar      1 <0>         0.1396
     23 C17         7.4397    0.1278    1.7562 C.ar      1 <0>        -0.2037
     24 C18         6.2496    0.0452    2.4441 C.2       1 <0>         0.0867
     25 N4          6.3318    0.8577    3.5098 N.pl3     1 <0>        -0.4352
     26 N5          7.5822    1.4865    3.5324 N.2       1 <0>        -0.2787
     27 H1          5.6293    0.9901    4.1654 H         1 <0>         0.4493
     28 C19         9.5203   -0.9225   -1.0941 C.2       1 <0>         0.0750
     29 N6          8.4410   -1.6348   -1.3401 N.2       1 <0>        -0.2274
     30 C20        10.7547   -0.9037   -1.8996 C.2       1 <0>         0.6078
     31 O3         11.6899   -0.2031   -1.5629 O.2       1 <0>        -0.5152
     32 N7         10.8469   -1.6631   -3.0093 N.am      1 <0>        -0.8351
     33 H2          1.0047    1.8421    0.0024 H         1 <0>         0.0251
     34 H3         -0.5450    1.8259   -0.8730 H         1 <0>         0.0718
     35 H4         -0.5280    1.8163    0.9069 H         1 <0>         0.0717
     36 H5          0.0842   -0.0681   -2.0965 H         1 <0>         0.0908
     37 H6          1.6514   -0.2612   -1.2740 H         1 <0>         0.0390
     38 H7         -0.6272   -2.2925   -1.3646 H         1 <0>         0.0879
     39 H8          0.9653   -2.4359   -2.1544 H         1 <0>         0.0952
     40 H9         -0.4970   -2.3059    1.3995 H         1 <0>         0.0879
     41 H10         1.1627   -2.4563    2.0346 H         1 <0>         0.0944
     42 H11         1.7640   -0.2728    1.1147 H         1 <0>         0.0376
     43 H12         0.2811   -0.0884    2.0828 H         1 <0>         0.0900
     44 H13         3.7238   -3.0326   -2.3228 H         1 <0>         0.1523
     45 H14         5.9601   -2.0106   -2.4283 H         1 <0>         0.1475
     46 H15         6.1690   -2.0499    1.8429 H         1 <0>         0.1486
     47 H16         3.9281   -3.0629    1.9377 H         1 <0>         0.1527
     48 H17        11.0568    0.9865    0.5047 H         1 <0>         0.1494
     49 H18        10.2633    2.0546    2.5106 H         1 <0>         0.1445
     50 H19         5.4004   -0.5651    2.1742 H         1 <0>         0.1927
     51 H20        10.1010   -2.2220   -3.2779 H         1 <0>         0.4094
     52 H21        11.6592   -1.6508   -3.5393 H         1 <0>         0.4131
@<TRIPOS>BOND
     1    1    2 1
     2    1   33 1
     3    1   34 1
     4    1   35 1
     5    2    7 1
     6    2    3 1
     7    3    4 1
     8    3   36 1
     9    3   37 1
    10    4    5 1
    11    4   38 1
    12    4   39 1
    13    5    6 1
    14    5    8 1
    15    6    7 1
    16    6   40 1
    17    6   41 1
    18    7   42 1
    19    7   43 1
    20    8    9 2
    21    8   10 2
    22    8   11 1
    23   11   16 ar
    24   11   12 ar
    25   12   13 ar
    26   12   44 1
    27   13   14 ar
    28   13   45 1
    29   14   15 ar
    30   14   17 1
    31   15   16 ar
    32   15   46 1
    33   16   47 1
    34   17   29 1
    35   17   18 1
    36   18   23 ar
    37   18   19 ar
    38   19   20 ar
    39   19   28 1
    40   20   21 ar
    41   20   48 1
    42   21   22 ar
    43   21   49 1
    44   22   23 ar
    45   22   26 2
    46   23   24 2
    47   24   50 1
    48   24   25 1
    49   25   27 1
    50   25   26 1
    51   28   29 2
    52   28   30 1
    53   30   31 2
    54   30   32 am
    55   32   51 1
    56   32   52 1
@<TRIPOS>MOLECULE
CHEMBL178408
   40    43     0     0     0
SMALL
USER_CHARGES

@<TRIPOS>ATOM
      1 C1          1.2691   -0.0751    1.2960 C.3       1 <0>        -0.6500
      2 S1          0.0010   -0.0024    0.0009 S.o2      1 <0>         2.5005
      3 O1         -0.9532   -1.0380    0.1916 O.2       1 <0>        -0.9317
      4 O2         -0.4178    1.3406   -0.1992 O.2       1 <0>        -0.9325
      5 C2          0.8448   -0.4363   -1.4838 C.ar      1 <0>        -0.6616
      6 C3          1.4399    0.5476   -2.2519 C.ar      1 <0>        -0.0042
      7 C4          2.1020    0.2108   -3.4162 C.ar      1 <0>        -0.1502
      8 C5          2.1697   -1.1177   -3.8153 C.ar      1 <0>         0.2053
      9 C6          1.5711   -2.1034   -3.0417 C.ar      1 <0>        -0.1245
     10 C7          0.9153   -1.7607   -1.8755 C.ar      1 <0>        -0.0017
     11 N1          2.8400   -1.4624   -4.9956 N.pl3     1 <0>        -0.3056
     12 C8          4.0288   -0.9806   -5.4024 C.2       1 <0>         0.1730
     13 C9          4.3624   -1.5967   -6.5909 C.2       1 <0>        -0.1730
     14 C10         3.3039   -2.4502   -6.9229 C.2       1 <0>         0.0533
     15 N2          2.3942   -2.3782   -5.9641 N.2       1 <0>        -0.2550
     16 C11         3.2190   -3.2917   -8.1338 C.2       1 <0>         0.6067
     17 O3          4.1224   -3.2792   -8.9472 O.2       1 <0>        -0.5196
     18 N3          2.1401   -4.0734   -8.3369 N.am      1 <0>        -0.8379
     19 C12         5.6630   -1.3622   -7.3080 C.3       1 <0>        -0.0413
     20 C13         6.1800    0.0617   -7.1003 C.3       1 <0>        -0.0417
     21 C14         6.0225    0.4954   -5.6669 C.2       1 <0>         0.1154
     22 C15         4.9640    0.0133   -4.8388 C.2       1 <0>        -0.1999
     23 C16         5.0657    0.6097   -3.6382 C.2       1 <0>         0.0980
     24 N4          6.1527    1.4158   -3.6797 N.pl3     1 <0>        -0.4767
     25 H1          6.4780    1.9682   -2.9518 H         1 <0>         0.4471
     26 N5          6.7286    1.3155   -4.9561 N.2       1 <0>        -0.2679
     27 H2          1.6802   -1.0833    1.3458 H         1 <0>         0.1330
     28 H3          2.0662    0.6313    1.0641 H         1 <0>         0.1319
     29 H4          0.8228    0.1832    2.2564 H         1 <0>         0.1360
     30 H5          1.3865    1.5806   -1.9412 H         1 <0>         0.1554
     31 H6          2.5663    0.9797   -4.0159 H         1 <0>         0.1442
     32 H7          1.6217   -3.1374   -3.3495 H         1 <0>         0.1465
     33 H8          0.4536   -2.5273   -1.2710 H         1 <0>         0.1556
     34 H9          1.4193   -4.0833   -7.6878 H         1 <0>         0.4089
     35 H10         2.0843   -4.6260   -9.1321 H         1 <0>         0.4105
     36 H11         6.4059   -2.0673   -6.9351 H         1 <0>         0.0788
     37 H12         5.5163   -1.5344   -8.3743 H         1 <0>         0.1042
     38 H13         7.2349    0.1018   -7.3717 H         1 <0>         0.0958
     39 H14         5.6209    0.7419   -7.7428 H         1 <0>         0.0929
     40 H15         4.4029    0.4716   -2.7967 H         1 <0>         0.1819
@<TRIPOS>BOND
     1    1    2 1
     2    1   27 1
     3    1   28 1
     4    1   29 1
     5    2    3 2
     6    2    4 2
     7    2    5 1
     8    5   10 ar
     9    5    6 ar
    10    6    7 ar
    11    6   30 1
    12    7    8 ar
    13    7   31 1
    14    8    9 ar
    15    8   11 1
    16    9   10 ar
    17    9   32 1
    18   10   33 1
    19   11   15 1
    20   11   12 1
    21   12   22 1
    22   12   13 2
    23   13   14 1
    24   13   19 1
    25   14   15 2
    26   14   16 1
    27   16   17 2
    28   16   18 am
    29   18   34 1
    30   18   35 1
    31   19   20 1
    32   19   36 1
    33   19   37 1
    34   20   21 1
    35   20   38 1
    36   20   39 1
    37   21   26 2
    38   21   22 1
    39   22   23 2
    40   23   24 1
    41   23   40 1
    42   24   25 1
    43   24   26 1
@<TRIPOS>MOLECULE
CHEMBL178408
   40    43     0     0     0
SMALL
USER_CHARGES

@<TRIPOS>ATOM
      1 C1          1.2696   -0.0776    1.2963 C.3       1 <0>        -0.6499
      2 S1          0.0014   -0.0031    0.0014 S.o2      1 <0>         2.5005
      3 O1         -0.9535   -1.0381    0.1913 O.2       1 <0>        -0.9330
      4 O2         -0.4165    1.3404   -0.1977 O.2       1 <0>        -0.9328
      5 C2          0.8448   -0.4363   -1.4838 C.ar      1 <0>        -0.6605
      6 C3          1.4405    0.5478   -2.2512 C.ar      1 <0>        -0.0032
      7 C4          2.1027    0.2115   -3.4155 C.ar      1 <0>        -0.1443
      8 C5          2.1699   -1.1168   -3.8155 C.ar      1 <0>         0.2032
      9 C6          1.5705   -2.1027   -3.0426 C.ar      1 <0>        -0.1246
     10 C7          0.9144   -1.7604   -1.8766 C.ar      1 <0>        -0.0031
     11 N1          2.8401   -1.4611   -4.9959 N.pl3     1 <0>        -0.3029
     12 C8          4.0289   -0.9786   -5.4024 C.2       1 <0>         0.1816
     13 C9          4.3578   -1.5901   -6.5949 C.2       1 <0>        -0.1880
     14 C10         3.3016   -2.4448   -6.9262 C.2       1 <0>         0.0549
     15 N2          2.3943   -2.3768   -5.9645 N.2       1 <0>        -0.2566
     16 C11         3.2160   -3.2845   -8.1383 C.2       1 <0>         0.6071
     17 O3          4.1178   -3.2688   -8.9536 O.2       1 <0>        -0.5222
     18 N3          2.1384   -4.0682   -8.3405 N.am      1 <0>        -0.8375
     19 C12         5.6564   -1.3407   -7.3118 C.3       1 <0>        -0.0361
     20 C13         6.1601    0.0844   -7.0745 C.3       1 <0>        -0.0615
     21 C14         5.9866    0.4934   -5.6372 C.2       1 <0>         0.1383
     22 C15         4.9658    0.0126   -4.8389 C.2       1 <0>        -0.2117
     23 C16         5.0692    0.6169   -3.5914 C.2       1 <0>         0.0826
     24 N4          6.1152    1.4089   -3.6155 N.2       1 <0>        -0.2858
     25 H1          7.5013    1.8118   -5.1719 H         1 <0>         0.4461
     26 N5          6.7065    1.3345   -4.8866 N.pl3     1 <0>        -0.4471
     27 H2          1.6800   -1.0862    1.3452 H         1 <0>         0.1329
     28 H3          2.0671    0.6284    1.0648 H         1 <0>         0.1333
     29 H4          0.8236    0.1802    2.2569 H         1 <0>         0.1355
     30 H5          1.3876    1.5806   -1.9398 H         1 <0>         0.1560
     31 H6          2.5675    0.9806   -4.0146 H         1 <0>         0.1445
     32 H7          1.6207   -3.1365   -3.3512 H         1 <0>         0.1457
     33 H8          0.4519   -2.5272   -1.2728 H         1 <0>         0.1550
     34 H9          1.4189   -4.0808   -7.6900 H         1 <0>         0.4093
     35 H10         2.0822   -4.6197   -9.1365 H         1 <0>         0.4104
     36 H11         6.4039   -2.0476   -6.9519 H         1 <0>         0.0791
     37 H12         5.5085   -1.4932   -8.3809 H         1 <0>         0.1053
     38 H13         7.2170    0.1374   -7.3356 H         1 <0>         0.0941
     39 H14         5.6008    0.7710   -7.7100 H         1 <0>         0.0982
     40 H15         4.4069    0.4625   -2.7524 H         1 <0>         0.1871
@<TRIPOS>BOND
     1    1    2 1
     2    1   27 1
     3    1   28 1
     4    1   29 1
     5    2    3 2
     6    2    4 2
     7    2    5 1
     8    5   10 ar
     9    5    6 ar
    10    6    7 ar
    11    6   30 1
    12    7    8 ar
    13    7   31 1
    14    8    9 ar
    15    8   11 1
    16    9   10 ar
    17    9   32 1
    18   10   33 1
    19   11   15 1
    20   11   12 1
    21   12   13 2
    22   12   22 1
    23   13   14 1
    24   13   19 1
    25   14   15 2
    26   14   16 1
    27   16   17 2
    28   16   18 am
    29   18   34 1
    30   18   35 1
    31   19   20 1
    32   19   36 1
    33   19   37 1
    34   20   38 1
    35   20   39 1
    36   20   21 1
    37   21   22 2
    38   21   26 1
    39   22   23 1
    40   23   24 2
    41   23   40 1
    42   24   26 1
    43   25   26 1
@<TRIPOS>MOLECULE
CHEMBL340012
   34    34     0     0     0
SMALL
USER_CHARGES

@<TRIPOS>ATOM
      1 C1         -0.0184    1.5028    0.0103 C.3       1 <0>        -0.1677
      2 C2          0.0021   -0.0041    0.0020 C.2       1 <0>         0.5053
      3 O1          1.0606   -0.5962   -0.0113 O.2       1 <0>        -0.4720
      4 N1         -1.1558   -0.6938    0.0094 N.am      1 <0>        -0.6206
      5 C3         -1.1369   -2.0857    0.0017 C.2       1 <0>         0.3384
      6 N2         -0.1045   -2.9082   -0.0067 N.2       1 <0>        -0.4902
      7 C4         -0.2703   -4.2178   -0.0132 C.2       1 <0>         0.0869
      8 C5         -1.5301   -4.7366   -0.0112 C.2       1 <0>        -0.2372
      9 S1         -2.5044   -3.2372    0.0086 S.3       1 <0>         0.0176
     10 S2         -2.0541   -6.4189   -0.0190 S.3       1 <0>         0.0859
     11 C6         -3.8650   -6.3145   -0.0111 C.3       1 <0>        -0.1448
     12 C7         -4.4483   -7.7041   -0.0169 C.2       1 <0>         0.4881
     13 O2         -3.7173   -8.6661   -0.0254 O.2       1 <0>        -0.4792
     14 O3         -5.7799   -7.8730   -0.0126 O.3       1 <0>        -0.3374
     15 C8         -6.2633   -9.2177   -0.0185 C.3       1 <0>         0.1164
     16 C9         -5.7521   -9.9489    1.2245 C.3       1 <0>        -0.1876
     17 C10        -7.7933   -9.2098   -0.0123 C.3       1 <0>        -0.1412
     18 C11        -5.7621   -9.9344   -1.2739 C.3       1 <0>        -0.1875
     19 H1          1.0042    1.8801    0.0026 H         1 <0>         0.1035
     20 H2         -0.5455    1.8639   -0.8728 H         1 <0>         0.0965
     21 H3         -0.5286    1.8543    0.9071 H         1 <0>         0.0965
     22 H4         -2.0023   -0.2203    0.0200 H         1 <0>         0.4287
     23 H5          0.5875   -4.8739   -0.0205 H         1 <0>         0.1764
     24 H6         -4.1946   -5.7858    0.8833 H         1 <0>         0.1317
     25 H7         -4.2017   -5.7755   -0.8967 H         1 <0>         0.1318
     26 H8         -6.1092   -9.4384    2.1189 H         1 <0>         0.0630
     27 H9         -6.1208  -10.9746    1.2200 H         1 <0>         0.0747
     28 H10        -4.6621   -9.9546    1.2201 H         1 <0>         0.0843
     29 H11        -8.1575   -8.6889   -0.8979 H         1 <0>         0.0681
     30 H12        -8.1620  -10.2355   -0.0169 H         1 <0>         0.0818
     31 H13        -8.1504   -8.6992    0.8820 H         1 <0>         0.0681
     32 H14        -4.6721   -9.9400   -1.2783 H         1 <0>         0.0843
     33 H15        -6.1308  -10.9601   -1.2784 H         1 <0>         0.0747
     34 H16        -6.1262   -9.4135   -2.1594 H         1 <0>         0.0630
@<TRIPOS>BOND
     1    1    2 1
     2    1   19 1
     3    1   20 1
     4    1   21 1
     5    2    3 2
     6    2    4 am
     7    4    5 1
     8    4   22 1
     9    5    9 1
    10    5    6 2
    11    6    7 1
    12    7    8 2
    13    7   23 1
    14    8    9 1
    15    8   10 1
    16   10   11 1
    17   11   12 1
    18   11   24 1
    19   11   25 1
    20   12   13 2
    21   12   14 1
    22   14   15 1
    23   15   16 1
    24   15   17 1
    25   15   18 1
    26   16   26 1
    27   16   27 1
    28   16   28 1
    29   17   29 1
    30   17   30 1
    31   17   31 1
    32   18   32 1
    33   18   33 1
    34   18   34 1
@<TRIPOS>MOLECULE
CHEMBL380946
   57    60     0     0     0
SMALL
USER_CHARGES

@<TRIPOS>ATOM
      1 C1         -0.0187    1.5258    0.0104 C.3       1 <0>        -0.1535
      2 C2          0.0021   -0.0041    0.0020 C.3       1 <0>        -0.1217
      3 C3         -1.4333   -0.5336    0.0129 C.3       1 <0>        -0.1327
      4 C4         -1.4126   -2.0635    0.0045 C.3       1 <0>         0.1361
      5 N1         -2.7870   -2.5706    0.0149 N.am      1 <0>        -0.7427
      6 C5         -3.0152   -3.8988    0.0099 C.2       1 <0>         0.7344
      7 O1         -2.0805   -4.6763   -0.0032 O.2       1 <0>        -0.5784
      8 N2         -4.2797   -4.3654    0.0195 N.am      1 <0>        -0.6317
      9 C6         -4.6876   -5.7736    0.0217 C.3       1 <0>         0.2220
     10 C7         -6.1941   -5.8156    0.0340 C.2       1 <0>        -0.3120
     11 C8         -6.6781   -4.5061    0.0390 C.2       1 <0>         0.0677
     12 N3         -7.9877   -4.5524    0.0503 N.2       1 <0>        -0.2486
     13 N4         -8.3822   -5.8959    0.0529 N.pl3     1 <0>        -0.4529
     14 H1         -9.2955   -6.2226    0.0603 H         1 <0>         0.4558
     15 C9         -7.2648   -6.6574    0.0428 C.2       1 <0>         0.3605
     16 N5         -7.2174   -8.0514    0.0411 N.am      1 <0>        -0.6439
     17 C10        -8.3610   -8.7645    0.0506 C.2       1 <0>         0.5244
     18 O2         -9.4314   -8.1942    0.0606 O.2       1 <0>        -0.5137
     19 C11        -8.3098  -10.2707    0.0488 C.3       1 <0>        -0.0641
     20 H2         -7.7918  -10.6155   -0.8461 H         1 <0>         0.1167
     21 C12        -7.5606  -10.7570    1.2911 C.3       1 <0>        -0.1470
     22 C13        -9.7126  -10.8210    0.0608 C.ar      1 <0>        -0.0703
     23 C14       -10.5656  -10.5034    1.1163 C.ar      1 <0>        -0.0855
     24 C15       -11.8382  -10.9841    1.1578 C.ar      1 <0>        -0.1054
     25 C16       -12.3025  -11.8130    0.1222 C.ar      1 <0>        -0.0468
     26 C17       -13.6101  -12.3279    0.1301 C.ar      1 <0>        -0.1077
     27 C18       -14.0252  -13.1272   -0.8901 C.ar      1 <0>        -0.1141
     28 C19       -13.1723  -13.4446   -1.9458 C.ar      1 <0>        -0.1166
     29 C20       -11.8996  -12.9643   -1.9870 C.ar      1 <0>        -0.1055
     30 C21       -11.4353  -12.1356   -0.9512 C.ar      1 <0>        -0.0527
     31 C22       -10.1294  -11.6162   -0.9620 C.ar      1 <0>        -0.0929
     32 C23        -5.5043   -3.5595    0.0360 C.3       1 <0>         0.1944
     33 H3          1.0039    1.9031    0.0027 H         1 <0>         0.0565
     34 H4         -0.5459    1.8868   -0.8726 H         1 <0>         0.0546
     35 H5         -0.5289    1.8773    0.9072 H         1 <0>         0.0546
     36 H6          0.5123   -0.3556   -0.8948 H         1 <0>         0.0660
     37 H7          0.5293   -0.3651    0.8851 H         1 <0>         0.0660
     38 H8         -1.9435   -0.1821    0.9097 H         1 <0>         0.0698
     39 H9         -1.9605   -0.1726   -0.8702 H         1 <0>         0.0698
     40 H10        -0.9024   -2.4150   -0.8923 H         1 <0>         0.0686
     41 H11        -0.8854   -2.4246    0.8875 H         1 <0>         0.0686
     42 H12        -3.5327   -1.9503    0.0253 H         1 <0>         0.3977
     43 H13        -4.3116   -6.2684   -0.8738 H         1 <0>         0.0748
     44 H14        -4.2970   -6.2698    0.9102 H         1 <0>         0.0746
     45 H15        -6.3614   -8.5075    0.0331 H         1 <0>         0.4308
     46 H16        -8.0785  -10.4121    2.1860 H         1 <0>         0.0677
     47 H17        -7.5235  -11.8463    1.2898 H         1 <0>         0.0805
     48 H18        -6.5459  -10.3589    1.2824 H         1 <0>         0.0683
     49 H19       -10.2113   -9.8666    1.9134 H         1 <0>         0.1191
     50 H20       -12.4877  -10.7301    1.9824 H         1 <0>         0.1280
     51 H21       -14.2820  -12.0908    0.9418 H         1 <0>         0.1275
     52 H22       -15.0305  -13.5219   -0.8815 H         1 <0>         0.1239
     53 H23       -13.5266  -14.0814   -2.7428 H         1 <0>         0.1240
     54 H24       -11.2498  -13.2188   -2.8112 H         1 <0>         0.1271
     55 H25        -9.4589  -11.8501   -1.7757 H         1 <0>         0.1279
     56 H26        -5.5257   -2.9387    0.9316 H         1 <0>         0.0912
     57 H27        -5.5434   -2.9290   -0.8522 H         1 <0>         0.0909
@<TRIPOS>BOND
     1    1    2 1
     2    1   33 1
     3    1   34 1
     4    1   35 1
     5    2    3 1
     6    2   36 1
     7    2   37 1
     8    3    4 1
     9    3   38 1
    10    3   39 1
    11    4    5 1
    12    4   40 1
    13    4   41 1
    14    5    6 am
    15    5   42 1
    16    6    7 2
    17    6    8 am
    18    8   32 1
    19    8    9 1
    20    9   10 1
    21    9   43 1
    22    9   44 1
    23   10   15 2
    24   10   11 1
    25   11   12 2
    26   11   32 1
    27   12   13 1
    28   13   14 1
    29   13   15 1
    30   15   16 1
    31   16   17 am
    32   16   45 1
    33   17   18 2
    34   17   19 1
    35   19   20 1
    36   19   21 1
    37   19   22 1
    38   21   46 1
    39   21   47 1
    40   21   48 1
    41   22   31 ar
    42   22   23 ar
    43   23   24 ar
    44   23   49 1
    45   24   25 ar
    46   24   50 1
    47   25   30 ar
    48   25   26 ar
    49   26   27 ar
    50   26   51 1
    51   27   28 ar
    52   27   52 1
    53   28   29 ar
    54   28   53 1
    55   29   30 ar
    56   29   54 1
    57   30   31 ar
    58   31   55 1
    59   32   56 1
    60   32   57 1
@<TRIPOS>MOLECULE
CHEMBL380946
   57    60     0     0     0
SMALL
USER_CHARGES

@<TRIPOS>ATOM
      1 C1         -0.0187    1.5258    0.0104 C.3       1 <0>        -0.1535
      2 C2          0.0021   -0.0041    0.0020 C.3       1 <0>        -0.1219
      3 C3         -1.4333   -0.5336    0.0129 C.3       1 <0>        -0.1322
      4 C4         -1.4126   -2.0635    0.0045 C.3       1 <0>         0.1355
      5 N1         -2.7870   -2.5706    0.0149 N.am      1 <0>        -0.7426
      6 C5         -3.0152   -3.8988    0.0099 C.2       1 <0>         0.7346
      7 O1         -2.0805   -4.6763   -0.0032 O.2       1 <0>        -0.5743
      8 N2         -4.2797   -4.3654    0.0195 N.am      1 <0>        -0.6316
      9 C6         -4.6987   -5.7717    0.0219 C.3       1 <0>         0.2113
     10 C7         -6.2064   -5.7953    0.0342 C.2       1 <0>        -0.2809
     11 C8         -6.6732   -4.5295    0.0389 C.2       1 <0>         0.0714
     12 N3         -8.0243   -4.5853    0.0499 N.pl3     1 <0>        -0.4427
     13 N4         -8.4023   -5.9334    0.0520 N.2       1 <0>        -0.2497
     14 H1         -8.6262   -3.8246    0.0556 H         1 <0>         0.4454
     15 C9         -7.3130   -6.6637    0.0426 C.2       1 <0>         0.3385
     16 N5         -7.2606   -8.0643    0.0407 N.am      1 <0>        -0.6400
     17 C10        -8.4018   -8.7813    0.0495 C.2       1 <0>         0.5108
     18 O2         -9.4741   -8.2145    0.0591 O.2       1 <0>        -0.4748
     19 C11        -8.3454  -10.2873    0.0475 C.3       1 <0>        -0.0661
     20 H2         -7.8259  -10.6302   -0.8472 H         1 <0>         0.1114
     21 C12        -7.5952  -10.7712    1.2900 C.3       1 <0>        -0.1452
     22 C13        -9.7464  -10.8424    0.0587 C.ar      1 <0>        -0.0648
     23 C14       -10.6010  -10.5278    1.1139 C.ar      1 <0>        -0.0819
     24 C15       -11.8720  -11.0128    1.1547 C.ar      1 <0>        -0.1077
     25 C16       -12.3330  -11.8431    0.1188 C.ar      1 <0>        -0.0475
     26 C17       -13.6389  -12.3624    0.1259 C.ar      1 <0>        -0.1073
     27 C18       -14.0508  -13.1630   -0.8946 C.ar      1 <0>        -0.1162
     28 C19       -13.1963  -13.4772   -1.9499 C.ar      1 <0>        -0.1184
     29 C20       -11.9252  -12.9926   -1.9904 C.ar      1 <0>        -0.1053
     30 C21       -11.4641  -12.1626   -0.9543 C.ar      1 <0>        -0.0524
     31 C22       -10.1600  -11.6388   -0.9644 C.ar      1 <0>        -0.0961
     32 C23        -5.5116   -3.5682    0.0360 C.3       1 <0>         0.1815
     33 H3          1.0039    1.9031    0.0027 H         1 <0>         0.0570
     34 H4         -0.5459    1.8868   -0.8726 H         1 <0>         0.0545
     35 H5         -0.5289    1.8773    0.9072 H         1 <0>         0.0545
     36 H6          0.5123   -0.3556   -0.8948 H         1 <0>         0.0664
     37 H7          0.5293   -0.3651    0.8851 H         1 <0>         0.0664
     38 H8         -1.9435   -0.1821    0.9097 H         1 <0>         0.0694
     39 H9         -1.9605   -0.1726   -0.8702 H         1 <0>         0.0694
     40 H10        -0.9024   -2.4150   -0.8923 H         1 <0>         0.0692
     41 H11        -0.8854   -2.4246    0.8875 H         1 <0>         0.0693
     42 H12        -3.5327   -1.9503    0.0253 H         1 <0>         0.3965
     43 H13        -4.3281   -6.2698   -0.8740 H         1 <0>         0.0778
     44 H14        -4.3119   -6.2716    0.9099 H         1 <0>         0.0778
     45 H15        -6.4030   -8.5175    0.0331 H         1 <0>         0.4224
     46 H16        -8.1147  -10.4282    2.1848 H         1 <0>         0.0662
     47 H17        -7.5544  -11.8604    1.2886 H         1 <0>         0.0765
     48 H18        -6.5818  -10.3697    1.2820 H         1 <0>         0.0667
     49 H19       -10.2492   -9.8899    1.9112 H         1 <0>         0.1197
     50 H20       -12.5228  -10.7612    1.9790 H         1 <0>         0.1270
     51 H21       -14.3119  -12.1277    0.9373 H         1 <0>         0.1265
     52 H22       -15.0547  -13.5610   -0.8865 H         1 <0>         0.1228
     53 H23       -13.5480  -14.1152   -2.7473 H         1 <0>         0.1228
     54 H24       -11.2741  -13.2449   -2.8144 H         1 <0>         0.1264
     55 H25        -9.4883  -11.8702   -1.7778 H         1 <0>         0.1272
     56 H26        -5.5393   -2.9484    0.9322 H         1 <0>         0.0902
     57 H27        -5.5570   -2.9387   -0.8526 H         1 <0>         0.0899
@<TRIPOS>BOND
     1    1    2 1
     2    1   33 1
     3    1   34 1
     4    1   35 1
     5    2    3 1
     6    2   36 1
     7    2   37 1
     8    3    4 1
     9    3   38 1
    10    3   39 1
    11    4    5 1
    12    4   40 1
    13    4   41 1
    14    5    6 am
    15    5   42 1
    16    6    7 2
    17    6    8 am
    18    8   32 1
    19    8    9 1
    20    9   43 1
    21    9   44 1
    22    9   10 1
    23   10   15 1
    24   10   11 2
    25   11   32 1
    26   11   12 1
    27   12   13 1
    28   12   14 1
    29   13   15 2
    30   15   16 1
    31   16   17 am
    32   16   45 1
    33   17   18 2
    34   17   19 1
    35   19   20 1
    36   19   21 1
    37   19   22 1
    38   21   46 1
    39   21   47 1
    40   21   48 1
    41   22   31 ar
    42   22   23 ar
    43   23   24 ar
    44   23   49 1
    45   24   25 ar
    46   24   50 1
    47   25   30 ar
    48   25   26 ar
    49   26   27 ar
    50   26   51 1
    51   27   28 ar
    52   27   52 1
    53   28   29 ar
    54   28   53 1
    55   29   30 ar
    56   29   54 1
    57   30   31 ar
    58   31   55 1
    59   32   56 1
    60   32   57 1
@<TRIPOS>MOLECULE
CHEMBL60541
   41    44     0     0     0
SMALL
USER_CHARGES

@<TRIPOS>ATOM
      1 C1          0.6409    2.1359   -0.8813 C.3       1 <0>         0.0812
      2 N1          0.7313    0.6814   -0.7315 N.pl3     1 <0>        -1.1200
      3 S1         -0.6280   -0.2023   -0.3942 S.o2      1 <0>         2.7002
      4 O1         -0.2238   -1.5634   -0.3373 O.2       1 <0>        -0.9557
      5 O2         -1.2749    0.4463    0.6921 O.2       1 <0>        -0.9519
      6 C2         -1.7035   -0.0539   -1.7820 C.ar      1 <0>        -0.6988
      7 C3         -2.6282    0.9761   -1.8333 C.ar      1 <0>         0.0147
      8 C4         -3.4774    1.1056   -2.9134 C.ar      1 <0>        -0.1535
      9 C5         -3.4118    0.1984   -3.9654 C.ar      1 <0>         0.1985
     10 C6         -2.4745   -0.8421   -3.9099 C.ar      1 <0>        -0.1196
     11 C7         -1.6194   -0.9607   -2.8190 C.ar      1 <0>         0.0386
     12 C8         -2.6464   -1.6249   -5.1540 C.2       1 <0>        -0.1918
     13 C9         -1.9429   -2.7468   -5.5443 C.2       1 <0>         0.0765
     14 C10        -2.1301   -3.2833   -6.8370 C.2       1 <0>         0.0034
     15 C11        -2.0814   -4.6055   -7.1735 C.2       1 <0>        -0.0688
     16 C12        -2.3238   -4.6827   -8.5744 C.2       1 <0>        -0.2850
     17 C13        -2.5130   -3.4105   -9.0317 C.2       1 <0>         0.1381
     18 N2         -2.4017   -2.5621   -7.9881 N.pl3     1 <0>        -0.5098
     19 H1         -2.4950   -1.5978   -8.0369 H         1 <0>         0.4283
     20 C14        -2.3298   -5.9945   -9.2549 C.2       1 <0>         0.5646
     21 O3         -2.7047   -6.1430  -10.4014 O.2       1 <0>        -0.4538
     22 O4         -1.8768   -7.0257   -8.4815 O.3       1 <0>        -0.3620
     23 C15        -2.3471   -7.0541   -7.1305 C.3       1 <0>         0.0774
     24 C16        -1.8347   -5.8387   -6.3451 C.3       1 <0>        -0.0957
     25 C17        -3.7282   -0.9496   -5.8837 C.2       1 <0>         0.5586
     26 O5         -4.1789   -1.2827   -6.9653 O.2       1 <0>        -0.5011
     27 N3         -4.1336    0.0997   -5.1485 N.am      1 <0>        -0.6494
     28 H2          1.6291    2.5408   -1.0994 H         1 <0>         0.0851
     29 H3         -0.0386    2.3754   -1.6992 H         1 <0>         0.0600
     30 H4          0.2649    2.5737    0.0434 H         1 <0>         0.0709
     31 H5          1.5873    0.2360   -0.8298 H         1 <0>         0.4208
     32 H6         -2.6855    1.6844   -1.0201 H         1 <0>         0.1516
     33 H7         -4.1944    1.9127   -2.9416 H         1 <0>         0.1414
     34 H8         -0.8957   -1.7615   -2.7818 H         1 <0>         0.1482
     35 H9         -1.2493   -3.2141   -4.8609 H         1 <0>         0.1624
     36 H10        -2.7199   -3.1308  -10.0542 H         1 <0>         0.1878
     37 H11        -3.4370   -7.0469   -7.1304 H         1 <0>         0.0678
     38 H12        -1.9958   -7.9662   -6.6481 H         1 <0>         0.1186
     39 H13        -0.7667   -5.9469   -6.1557 H         1 <0>         0.0992
     40 H14        -2.3704   -5.7595   -5.3991 H         1 <0>         0.0994
     41 H15        -4.8406    0.7101   -5.4101 H         1 <0>         0.4235
@<TRIPOS>BOND
     1    1    2 1
     2    1   28 1
     3    1   29 1
     4    1   30 1
     5    2    3 1
     6    2   31 1
     7    3    4 2
     8    3    5 2
     9    3    6 1
    10    6   11 ar
    11    6    7 ar
    12    7    8 ar
    13    7   32 1
    14    8    9 ar
    15    8   33 1
    16    9   27 1
    17    9   10 ar
    18   10   11 ar
    19   10   12 1
    20   11   34 1
    21   12   13 2
    22   12   25 1
    23   13   14 1
    24   13   35 1
    25   14   18 1
    26   14   15 2
    27   15   24 1
    28   15   16 1
    29   16   17 2
    30   16   20 1
    31   17   18 1
    32   17   36 1
    33   18   19 1
    34   20   21 2
    35   20   22 1
    36   22   23 1
    37   23   24 1
    38   23   37 1
    39   23   38 1
    40   24   39 1
    41   24   40 1
    42   25   26 2
    43   25   27 am
    44   27   41 1
