@<TRIPOS>MOLECULE
FAP_A1300_1H00
   54    56     0     0     0
SMALL
USER_CHARGES

@<TRIPOS>ATOM
      1 C1         -1.2042    9.8247    6.8417 C.3       1 <0>        -0.0433
      2 C2         -2.0768    8.8928    8.9216 C.3       1 <0>        -0.0433
      3 C3        -11.4361   13.8117   13.3002 C.ar      1 <0>        -0.0562
      4 C4        -12.7206   13.5038   12.7879 C.ar      1 <0>        -0.0244
      5 C5        -10.6750   14.8576   12.7306 C.ar      1 <0>        -0.0244
      6 C6         -7.8803   16.2558    7.7942 C.ar      1 <0>        -0.0381
      7 C7         -8.0163   15.7268    5.3930 C.ar      1 <0>        -0.0381
      8 C8         -6.7079   15.4799    7.9075 C.ar      1 <0>        -0.0299
      9 C9         -6.8370   14.9467    5.5057 C.ar      1 <0>        -0.0299
     10 C10       -11.3675   16.5064    8.2120 C.ar      1 <0>         0.0185
     11 C11       -13.1036   18.3094    7.1729 C.ar      1 <0>         0.1201
     12 C12        -3.3991   10.6212    7.7296 C.3       1 <0>        -0.0036
     13 C13        -4.9929   12.7226    7.5285 C.3       1 <0>         0.0851
     14 C14        -8.5501   16.3856    6.5333 C.ar      1 <0>         0.0325
     15 C15        -6.1755   14.8183    6.7691 C.ar      1 <0>         0.0764
     16 C16       -13.2569   14.2437   11.7016 C.ar      1 <0>         0.1473
     17 C17       -11.1933   15.6073   11.6440 C.ar      1 <0>         0.1473
     18 C18       -11.0428   17.2866    7.0492 C.ar      1 <0>         0.1279
     19 C19       -12.6578   16.7326    8.7949 C.ar      1 <0>         0.1280
     20 C20       -12.5051   15.3049   11.1060 C.ar      1 <0>         0.1037
     21 C21        -3.5638   12.1529    7.5733 C.3       1 <0>         0.1184
     22 N1        -11.9276   18.1770    6.5525 N.ar      1 <0>        -0.2205
     23 N2        -13.5029   17.6378    8.2559 N.ar      1 <0>        -0.2205
     24 N3         -9.7661   17.1739    6.3591 N.pl3     1 <0>        -0.2993
     25 N4        -13.1314   16.0257    9.9792 N.pl3     1 <0>        -0.2948
     26 N5         -2.0266   10.1040    8.0492 N.4       1 <0>         0.2328
     27 O1         -2.7450   12.8691    8.4343 O.3       1 <0>        -0.3842
     28 O2         -5.0187   14.0761    6.9937 O.3       1 <0>        -0.3419
     29 F1        -14.5035   13.9150   11.2374 F         1 <0>        -0.2034
     30 F2        -10.4094   16.6033   11.1369 F         1 <0>        -0.2034
     31 H1         -1.1717   10.7206    6.2042 H         1 <0>         0.0777
     32 H2         -0.1825    9.5557    7.1483 H         1 <0>         0.0777
     33 H3         -1.6500    8.9909    6.2796 H         1 <0>         0.0777
     34 H4         -2.6862    9.1065    9.8120 H         1 <0>         0.0777
     35 H5         -2.5241    8.0572    8.3632 H         1 <0>         0.0777
     36 H6         -1.0567    8.6221    9.2319 H         1 <0>         0.0777
     37 H7        -11.0371   13.2453   14.1287 H         1 <0>         0.0619
     38 H8        -13.2952   12.7013   13.2264 H         1 <0>         0.0647
     39 H9         -9.6956   15.0867   13.1239 H         1 <0>         0.0647
     40 H10        -8.2770   16.7566    8.6650 H         1 <0>         0.0637
     41 H11        -8.5102   15.8205    4.4372 H         1 <0>         0.0637
     42 H12        -6.2134   15.3887    8.8632 H         1 <0>         0.0644
     43 H13        -6.4366   14.4478    4.6354 H         1 <0>         0.0644
     44 H14       -10.6757   15.7872    8.6249 H         1 <0>         0.0686
     45 H15       -13.7966   19.0271    6.7595 H         1 <0>         0.1048
     46 H16        -4.0582   10.3107    8.5537 H         1 <0>         0.0841
     47 H17        -3.6973   10.1678    6.7727 H         1 <0>         0.0841
     48 H18        -5.6098   12.0775    6.8855 H         1 <0>         0.0593
     49 H19        -5.3981   12.7396    8.5509 H         1 <0>         0.0593
     50 H20        -3.2179   12.3062    6.5404 H         1 <0>         0.0670
     51 H21        -9.7078   17.7876    5.5717 H         1 <0>         0.1536
     52 H22       -14.1293   16.0300   10.0447 H         1 <0>         0.1537
     53 H23        -1.5788   10.8457    8.5488 H         1 <0>         0.2029
     54 H24        -2.8817   13.7997    8.3012 H         1 <0>         0.2101
@<TRIPOS>BOND
     1    1   26 1
     2    2   26 1
     3    3    4 ar
     4    3    5 ar
     5    4   16 ar
     6    5   17 ar
     7    6    8 ar
     8    6   14 ar
     9    7    9 ar
    10    7   14 ar
    11    8   15 ar
    12    9   15 ar
    13   10   18 ar
    14   10   19 ar
    15   11   22 ar
    16   11   23 ar
    17   12   21 1
    18   12   26 1
    19   13   21 1
    20   13   28 1
    21   14   24 1
    22   15   28 1
    23   16   20 ar
    24   16   29 1
    25   17   20 ar
    26   17   30 1
    27   18   22 ar
    28   18   24 1
    29   19   23 ar
    30   19   25 1
    31   20   25 1
    32   21   27 1
    33    1   31 1
    34    1   32 1
    35    1   33 1
    36    2   34 1
    37    2   35 1
    38    2   36 1
    39    3   37 1
    40    4   38 1
    41    5   39 1
    42    6   40 1
    43    7   41 1
    44    8   42 1
    45    9   43 1
    46   10   44 1
    47   11   45 1
    48   12   46 1
    49   12   47 1
    50   13   48 1
    51   13   49 1
    52   21   50 1
    53   24   51 1
    54   25   52 1
    55   26   53 1
    56   27   54 1
